MODEL 1
REMARK VINA RESULT:    -7.120      0.000      0.000
REMARK INTER + INTRA:         -10.303
REMARK INTER:                  -9.618
REMARK INTRA:                  -0.685
REMARK UNBOUND:                -0.685
REMARK SMILES COc1ccccc1OCCNC(=O)c1cc(=O)[nH]c2cccc(F)c12
REMARK SMILES IDX 10 1 11 2 12 3 13 4 14 5 15 7 19 8 20 9 17 10 21 11 26 12
REMARK SMILES IDX 16 13 22 14 24 15 23 16 18 18 25 19 9 20 8 21 7 22 3 23 6 24
REMARK SMILES IDX 4 25 5 26 2 27 1 28
REMARK H PARENT 12 6 19 17
ROOT
ATOM      1  C   UNL     1       6.772  -2.456  21.325  1.00  0.00     0.251 C 
ENDROOT
BRANCH   1   2
ATOM      2  C   UNL     1       7.707  -2.581  22.530  1.00  0.00     0.157 C 
BRANCH   2   3
ATOM      3  N   UNL     1       9.020  -2.030  22.188  1.00  0.00    -0.349 N 
ATOM      4  C   UNL     1       9.941  -1.836  23.153  1.00  0.00     0.252 C 
ATOM      5  O   UNL     1       9.720  -2.208  24.288  1.00  0.00    -0.269 OA
ATOM      6  H   UNL     1       9.227  -1.804  21.268  1.00  0.00     0.163 HD
BRANCH   4   7
ATOM      7  C   UNL     1      11.225  -1.167  22.829  1.00  0.00     0.057 A 
ATOM      8  N   UNL     1      13.653   0.098  22.217  1.00  0.00    -0.322 N 
ATOM      9  C   UNL     1      12.604   0.886  22.644  1.00  0.00     0.052 A 
ATOM     10  C   UNL     1      13.518  -1.233  22.092  1.00  0.00     0.249 A 
ATOM     11  C   UNL     1      12.752   2.263  22.767  1.00  0.00     0.027 A 
ATOM     12  C   UNL     1      11.370   0.291  22.962  1.00  0.00     0.047 A 
ATOM     13  C   UNL     1      12.299  -1.888  22.391  1.00  0.00     0.086 A 
ATOM     14  C   UNL     1      11.692   3.033  23.195  1.00  0.00     0.005 A 
ATOM     15  C   UNL     1      10.302   1.085  23.395  1.00  0.00     0.133 A 
ATOM     16  C   UNL     1      10.473   2.449  23.508  1.00  0.00     0.040 A 
ATOM     17  H   UNL     1      14.502   0.514  22.000  1.00  0.00     0.170 HD
ATOM     18  O   UNL     1      14.470  -1.893  21.713  1.00  0.00    -0.270 OA
ATOM     19  F   UNL     1       9.114   0.520  23.702  1.00  0.00    -0.206 F 
ENDBRANCH   4   7
ENDBRANCH   2   3
ENDBRANCH   1   2
BRANCH   1  20
ATOM     20  O   UNL     1       6.052  -1.224  21.407  1.00  0.00    -0.488 OA
BRANCH  20  21
ATOM     21  C   UNL     1       6.022  -0.452  20.288  1.00  0.00     0.161 A 
ATOM     22  C   UNL     1       6.758  -0.817  19.172  1.00  0.00     0.050 A 
ATOM     23  C   UNL     1       5.251   0.707  20.262  1.00  0.00     0.160 A 
ATOM     24  C   UNL     1       6.724  -0.031  18.035  1.00  0.00     0.004 A 
ATOM     25  C   UNL     1       5.223   1.490  19.119  1.00  0.00     0.050 A 
ATOM     26  C   UNL     1       5.959   1.120  18.009  1.00  0.00     0.004 A 
BRANCH  23  27
ATOM     27  O   UNL     1       4.527   1.068  21.354  1.00  0.00    -0.493 OA
ATOM     28  C   UNL     1       3.371   1.877  21.128  1.00  0.00     0.278 C 
ENDBRANCH  23  27
ENDBRANCH  20  21
ENDBRANCH   1  20
TORSDOF 6
ENDMDL
MODEL 2
REMARK VINA RESULT:    -7.095      2.229      3.166
REMARK INTER + INTRA:         -10.269
REMARK INTER:                  -9.391
REMARK INTRA:                  -0.879
REMARK UNBOUND:                -0.685
REMARK SMILES COc1ccccc1OCCNC(=O)c1cc(=O)[nH]c2cccc(F)c12
REMARK SMILES IDX 10 1 11 2 12 3 13 4 14 5 15 7 19 8 20 9 17 10 21 11 26 12
REMARK SMILES IDX 16 13 22 14 24 15 23 16 18 18 25 19 9 20 8 21 7 22 3 23 6 24
REMARK SMILES IDX 4 25 5 26 2 27 1 28
REMARK H PARENT 12 6 19 17
ROOT
ATOM      1  C   UNL     1       6.353   0.018  22.749  1.00  0.00     0.251 C 
ENDROOT
BRANCH   1   2
ATOM      2  C   UNL     1       6.677   1.484  23.040  1.00  0.00     0.157 C 
BRANCH   2   3
ATOM      3  N   UNL     1       8.120   1.635  23.244  1.00  0.00    -0.349 N 
ATOM      4  C   UNL     1       8.929   1.858  22.190  1.00  0.00     0.252 C 
ATOM      5  O   UNL     1       8.455   2.031  21.085  1.00  0.00    -0.269 OA
ATOM      6  H   UNL     1       8.493   1.575  24.137  1.00  0.00     0.163 HD
BRANCH   4   7
ATOM      7  C   UNL     1      10.401   1.891  22.378  1.00  0.00     0.057 A 
ATOM      8  N   UNL     1      13.182   1.953  22.733  1.00  0.00    -0.322 N 
ATOM      9  C   UNL     1      12.591   0.733  22.477  1.00  0.00     0.052 A 
ATOM     10  C   UNL     1      12.451   3.077  22.816  1.00  0.00     0.249 A 
ATOM     11  C   UNL     1      13.355  -0.426  22.397  1.00  0.00     0.027 A 
ATOM     12  C   UNL     1      11.199   0.659  22.292  1.00  0.00     0.047 A 
ATOM     13  C   UNL     1      11.046   3.064  22.645  1.00  0.00     0.086 A 
ATOM     14  C   UNL     1      12.746  -1.635  22.140  1.00  0.00     0.005 A 
ATOM     15  C   UNL     1      10.594  -0.576  22.031  1.00  0.00     0.133 A 
ATOM     16  C   UNL     1      11.373  -1.712  21.958  1.00  0.00     0.040 A 
ATOM     17  H   UNL     1      14.143   1.999  22.859  1.00  0.00     0.170 HD
ATOM     18  O   UNL     1      13.012   4.135  23.043  1.00  0.00    -0.270 OA
ATOM     19  F   UNL     1       9.257  -0.655  21.853  1.00  0.00    -0.206 F 
ENDBRANCH   4   7
ENDBRANCH   2   3
ENDBRANCH   1   2
BRANCH   1  20
ATOM     20  O   UNL     1       5.301  -0.055  21.785  1.00  0.00    -0.488 OA
BRANCH  20  21
ATOM     21  C   UNL     1       5.639   0.152  20.485  1.00  0.00     0.161 A 
ATOM     22  C   UNL     1       6.545  -0.689  19.860  1.00  0.00     0.050 A 
ATOM     23  C   UNL     1       5.076   1.212  19.779  1.00  0.00     0.160 A 
ATOM     24  C   UNL     1       6.887  -0.476  18.537  1.00  0.00     0.004 A 
ATOM     25  C   UNL     1       5.424   1.420  18.454  1.00  0.00     0.050 A 
ATOM     26  C   UNL     1       6.328   0.576  17.836  1.00  0.00     0.004 A 
BRANCH  23  27
ATOM     27  O   UNL     1       4.187   2.040  20.388  1.00  0.00    -0.493 OA
ATOM     28  C   UNL     1       3.296   2.771  19.542  1.00  0.00     0.278 C 
ENDBRANCH  23  27
ENDBRANCH  20  21
ENDBRANCH   1  20
TORSDOF 6
ENDMDL
MODEL 3
REMARK VINA RESULT:    -7.052      2.261      6.488
REMARK INTER + INTRA:         -10.211
REMARK INTER:                  -9.045
REMARK INTRA:                  -1.166
REMARK UNBOUND:                -0.685
REMARK SMILES COc1ccccc1OCCNC(=O)c1cc(=O)[nH]c2cccc(F)c12
REMARK SMILES IDX 10 1 11 2 12 3 13 4 14 5 15 7 19 8 20 9 17 10 21 11 26 12
REMARK SMILES IDX 16 13 22 14 24 15 23 16 18 18 25 19 9 20 8 21 7 22 3 23 6 24
REMARK SMILES IDX 4 25 5 26 2 27 1 28
REMARK H PARENT 12 6 19 17
ROOT
ATOM      1  C   UNL     1      10.178  -2.317  22.682  1.00  0.00     0.251 C 
ENDROOT
BRANCH   1   2
ATOM      2  C   UNL     1       8.726  -2.661  22.345  1.00  0.00     0.157 C 
BRANCH   2   3
ATOM      3  N   UNL     1       8.089  -1.509  21.701  1.00  0.00    -0.349 N 
ATOM      4  C   UNL     1       6.949  -1.674  21.000  1.00  0.00     0.252 C 
ATOM      5  O   UNL     1       6.398  -2.756  20.982  1.00  0.00    -0.269 OA
ATOM      6  H   UNL     1       8.486  -0.628  21.779  1.00  0.00     0.163 HD
BRANCH   4   7
ATOM      7  C   UNL     1       6.369  -0.534  20.249  1.00  0.00     0.057 A 
ATOM      8  N   UNL     1       5.272   1.623  18.829  1.00  0.00    -0.322 N 
ATOM      9  C   UNL     1       4.923   1.479  20.156  1.00  0.00     0.052 A 
ATOM     10  C   UNL     1       6.106   0.756  18.231  1.00  0.00     0.249 A 
ATOM     11  C   UNL     1       4.057   2.379  20.766  1.00  0.00     0.027 A 
ATOM     12  C   UNL     1       5.453   0.411  20.904  1.00  0.00     0.047 A 
ATOM     13  C   UNL     1       6.665  -0.341  18.930  1.00  0.00     0.086 A 
ATOM     14  C   UNL     1       3.721   2.219  22.093  1.00  0.00     0.005 A 
ATOM     15  C   UNL     1       5.103   0.261  22.251  1.00  0.00     0.133 A 
ATOM     16  C   UNL     1       4.240   1.166  22.834  1.00  0.00     0.040 A 
ATOM     17  H   UNL     1       4.905   2.361  18.319  1.00  0.00     0.170 HD
ATOM     18  O   UNL     1       6.389   0.918  17.057  1.00  0.00    -0.270 OA
ATOM     19  F   UNL     1       5.607  -0.762  22.975  1.00  0.00    -0.206 F 
ENDBRANCH   4   7
ENDBRANCH   2   3
ENDBRANCH   1   2
BRANCH   1  20
ATOM     20  O   UNL     1      10.720  -1.482  21.657  1.00  0.00    -0.488 OA
BRANCH  20  21
ATOM     21  C   UNL     1      11.391  -0.369  22.059  1.00  0.00     0.161 A 
ATOM     22  C   UNL     1      12.646  -0.485  22.634  1.00  0.00     0.050 A 
ATOM     23  C   UNL     1      10.817   0.888  21.894  1.00  0.00     0.160 A 
ATOM     24  C   UNL     1      13.327   0.647  23.042  1.00  0.00     0.004 A 
ATOM     25  C   UNL     1      11.505   2.019  22.304  1.00  0.00     0.050 A 
ATOM     26  C   UNL     1      12.757   1.896  22.877  1.00  0.00     0.004 A 
BRANCH  23  27
ATOM     27  O   UNL     1       9.586   1.007  21.330  1.00  0.00    -0.493 OA
ATOM     28  C   UNL     1       8.755   2.069  21.804  1.00  0.00     0.278 C 
ENDBRANCH  23  27
ENDBRANCH  20  21
ENDBRANCH   1  20
TORSDOF 6
ENDMDL
MODEL 4
REMARK VINA RESULT:    -6.988      1.504      2.274
REMARK INTER + INTRA:         -10.125
REMARK INTER:                  -8.400
REMARK INTRA:                  -1.725
REMARK UNBOUND:                -0.685
REMARK SMILES COc1ccccc1OCCNC(=O)c1cc(=O)[nH]c2cccc(F)c12
REMARK SMILES IDX 10 1 11 2 12 3 13 4 14 5 15 7 19 8 20 9 17 10 21 11 26 12
REMARK SMILES IDX 16 13 22 14 24 15 23 16 18 18 25 19 9 20 8 21 7 22 3 23 6 24
REMARK SMILES IDX 4 25 5 26 2 27 1 28
REMARK H PARENT 12 6 19 17
ROOT
ATOM      1  C   UNL     1       6.782  -1.650  22.958  1.00  0.00     0.251 C 
ENDROOT
BRANCH   1   2
ATOM      2  C   UNL     1       7.768  -2.750  22.559  1.00  0.00     0.157 C 
BRANCH   2   3
ATOM      3  N   UNL     1       9.055  -2.146  22.203  1.00  0.00    -0.349 N 
ATOM      4  C   UNL     1       9.990  -1.944  23.152  1.00  0.00     0.252 C 
ATOM      5  O   UNL     1       9.807  -2.351  24.282  1.00  0.00    -0.269 OA
ATOM      6  H   UNL     1       9.234  -1.891  21.285  1.00  0.00     0.163 HD
BRANCH   4   7
ATOM      7  C   UNL     1      11.244  -1.225  22.817  1.00  0.00     0.057 A 
ATOM      8  N   UNL     1      13.614   0.136  22.185  1.00  0.00    -0.322 N 
ATOM      9  C   UNL     1      12.550   0.877  22.656  1.00  0.00     0.052 A 
ATOM     10  C   UNL     1      13.520  -1.196  22.027  1.00  0.00     0.249 A 
ATOM     11  C   UNL     1      12.656   2.254  22.813  1.00  0.00     0.027 A 
ATOM     12  C   UNL     1      11.344   0.233  22.986  1.00  0.00     0.047 A 
ATOM     13  C   UNL     1      12.330  -1.898  22.336  1.00  0.00     0.086 A 
ATOM     14  C   UNL     1      11.582   2.977  23.286  1.00  0.00     0.005 A 
ATOM     15  C   UNL     1      10.262   0.979  23.465  1.00  0.00     0.133 A 
ATOM     16  C   UNL     1      10.390   2.345  23.611  1.00  0.00     0.040 A 
ATOM     17  H   UNL     1      14.444   0.585  21.960  1.00  0.00     0.170 HD
ATOM     18  O   UNL     1      14.483  -1.813  21.608  1.00  0.00    -0.270 OA
ATOM     19  F   UNL     1       9.100   0.367  23.783  1.00  0.00    -0.206 F 
ENDBRANCH   4   7
ENDBRANCH   2   3
ENDBRANCH   1   2
BRANCH   1  20
ATOM     20  O   UNL     1       6.381  -0.925  21.793  1.00  0.00    -0.488 OA
BRANCH  20  21
ATOM     21  C   UNL     1       6.658   0.406  21.770  1.00  0.00     0.161 A 
ATOM     22  C   UNL     1       5.979   1.271  22.614  1.00  0.00     0.050 A 
ATOM     23  C   UNL     1       7.622   0.903  20.897  1.00  0.00     0.160 A 
ATOM     24  C   UNL     1       6.262   2.624  22.589  1.00  0.00     0.004 A 
ATOM     25  C   UNL     1       7.900   2.260  20.878  1.00  0.00     0.050 A 
ATOM     26  C   UNL     1       7.220   3.117  21.723  1.00  0.00     0.004 A 
BRANCH  23  27
ATOM     27  O   UNL     1       8.290   0.058  20.068  1.00  0.00    -0.493 OA
ATOM     28  C   UNL     1       7.816  -0.039  18.722  1.00  0.00     0.278 C 
ENDBRANCH  23  27
ENDBRANCH  20  21
ENDBRANCH   1  20
TORSDOF 6
ENDMDL
MODEL 5
REMARK VINA RESULT:    -6.911      2.519      7.351
REMARK INTER + INTRA:         -10.020
REMARK INTER:                  -9.143
REMARK INTRA:                  -0.877
REMARK UNBOUND:                -0.685
REMARK SMILES COc1ccccc1OCCNC(=O)c1cc(=O)[nH]c2cccc(F)c12
REMARK SMILES IDX 10 1 11 2 12 3 13 4 14 5 15 7 19 8 20 9 17 10 21 11 26 12
REMARK SMILES IDX 16 13 22 14 24 15 23 16 18 18 25 19 9 20 8 21 7 22 3 23 6 24
REMARK SMILES IDX 4 25 5 26 2 27 1 28
REMARK H PARENT 12 6 19 17
ROOT
ATOM      1  C   UNL     1      10.867   2.456  23.031  1.00  0.00     0.251 C 
ENDROOT
BRANCH   1   2
ATOM      2  C   UNL     1       9.684   3.235  23.611  1.00  0.00     0.157 C 
BRANCH   2   3
ATOM      3  N   UNL     1       8.625   3.335  22.605  1.00  0.00    -0.349 N 
ATOM      4  C   UNL     1       7.576   2.489  22.643  1.00  0.00     0.252 C 
ATOM      5  O   UNL     1       7.459   1.708  23.567  1.00  0.00    -0.269 OA
ATOM      6  H   UNL     1       8.677   4.009  21.910  1.00  0.00     0.163 HD
BRANCH   4   7
ATOM      7  C   UNL     1       6.566   2.509  21.558  1.00  0.00     0.057 A 
ATOM      8  N   UNL     1       4.654   2.547  19.505  1.00  0.00    -0.322 N 
ATOM      9  C   UNL     1       5.715   1.674  19.383  1.00  0.00     0.052 A 
ATOM     10  C   UNL     1       4.540   3.360  20.570  1.00  0.00     0.249 A 
ATOM     11  C   UNL     1       5.827   0.840  18.277  1.00  0.00     0.027 A 
ATOM     12  C   UNL     1       6.695   1.623  20.391  1.00  0.00     0.047 A 
ATOM     13  C   UNL     1       5.498   3.358  21.612  1.00  0.00     0.086 A 
ATOM     14  C   UNL     1       6.895  -0.026  18.173  1.00  0.00     0.005 A 
ATOM     15  C   UNL     1       7.773   0.739  20.273  1.00  0.00     0.133 A 
ATOM     16  C   UNL     1       7.864  -0.078  19.165  1.00  0.00     0.040 A 
ATOM     17  H   UNL     1       3.981   2.578  18.808  1.00  0.00     0.170 HD
ATOM     18  O   UNL     1       3.587   4.116  20.640  1.00  0.00    -0.270 OA
ATOM     19  F   UNL     1       8.718   0.685  21.237  1.00  0.00    -0.206 F 
ENDBRANCH   4   7
ENDBRANCH   2   3
ENDBRANCH   1   2
BRANCH   1  20
ATOM     20  O   UNL     1      10.994   1.207  23.713  1.00  0.00    -0.488 OA
BRANCH  20  21
ATOM     21  C   UNL     1      11.870   0.306  23.191  1.00  0.00     0.161 A 
ATOM     22  C   UNL     1      13.193   0.661  22.988  1.00  0.00     0.050 A 
ATOM     23  C   UNL     1      11.436  -0.975  22.859  1.00  0.00     0.160 A 
ATOM     24  C   UNL     1      14.081  -0.256  22.458  1.00  0.00     0.004 A 
ATOM     25  C   UNL     1      12.332  -1.889  22.328  1.00  0.00     0.050 A 
ATOM     26  C   UNL     1      13.651  -1.529  22.129  1.00  0.00     0.004 A 
BRANCH  23  27
ATOM     27  O   UNL     1      10.138  -1.328  23.057  1.00  0.00    -0.493 OA
ATOM     28  C   UNL     1       9.584  -2.291  22.158  1.00  0.00     0.278 C 
ENDBRANCH  23  27
ENDBRANCH  20  21
ENDBRANCH   1  20
TORSDOF 6
ENDMDL
