N3R
     RDKit          3D

 43 45  0  0  0  0  0  0  0  0999 V2000
    3.3710    1.8770   21.1280 C   0  0  0  0  0  0  0  0  0  0  0  0
    4.5270    1.0680   21.3540 O   0  0  0  0  0  0  0  0  0  0  0  0
    5.2510    0.7070   20.2620 C   0  0  0  0  0  0  0  0  0  0  0  0
    5.2230    1.4900   19.1190 C   0  0  0  0  0  0  0  0  0  0  0  0
    5.9590    1.1200   18.0090 C   0  0  0  0  0  0  0  0  0  0  0  0
    6.7240   -0.0310   18.0350 C   0  0  0  0  0  0  0  0  0  0  0  0
    6.7580   -0.8170   19.1720 C   0  0  0  0  0  0  0  0  0  0  0  0
    6.0220   -0.4520   20.2880 C   0  0  0  0  0  0  0  0  0  0  0  0
    6.0520   -1.2240   21.4070 O   0  0  0  0  0  0  0  0  0  0  0  0
    6.7720   -2.4560   21.3250 C   0  0  0  0  0  0  0  0  0  0  0  0
    7.7070   -2.5810   22.5300 C   0  0  0  0  0  0  0  0  0  0  0  0
    9.0200   -2.0300   22.1880 N   0  0  0  0  0  0  0  0  0  0  0  0
    9.9410   -1.8360   23.1530 C   0  0  0  0  0  0  0  0  0  0  0  0
    9.7200   -2.2080   24.2880 O   0  0  0  0  0  0  0  0  0  0  0  0
   11.2250   -1.1670   22.8290 C   0  0  0  0  0  0  0  0  0  0  0  0
   12.2990   -1.8880   22.3910 C   0  0  0  0  0  0  0  0  0  0  0  0
   13.5180   -1.2330   22.0920 C   0  0  0  0  0  0  0  0  0  0  0  0
   14.4700   -1.8930   21.7130 O   0  0  0  0  0  0  0  0  0  0  0  0
   13.6530    0.0980   22.2170 N   0  0  0  0  0  0  0  0  0  0  0  0
   12.6040    0.8860   22.6440 C   0  0  0  0  0  0  0  0  0  0  0  0
   12.7520    2.2630   22.7670 C   0  0  0  0  0  0  0  0  0  0  0  0
   11.6920    3.0330   23.1950 C   0  0  0  0  0  0  0  0  0  0  0  0
   10.4730    2.4490   23.5080 C   0  0  0  0  0  0  0  0  0  0  0  0
   10.3020    1.0850   23.3950 C   0  0  0  0  0  0  0  0  0  0  0  0
    9.1140    0.5200   23.7020 F   0  0  0  0  0  0  0  0  0  0  0  0
   11.3700    0.2910   22.9620 C   0  0  0  0  0  0  0  0  0  0  0  0
    2.9400    2.1786   22.0940 H   0  0  0  0  0  0  0  0  0  0  0  0
    3.6565    2.7734   20.5580 H   0  0  0  0  0  0  0  0  0  0  0  0
    2.6266    1.3017   20.5580 H   0  0  0  0  0  0  0  0  0  0  0  0
    4.6149    2.4063   19.0950 H   0  0  0  0  0  0  0  0  0  0  0  0
    5.9359    1.7430   17.1028 H   0  0  0  0  0  0  0  0  0  0  0  0
    7.3071   -0.3223   17.1490 H   0  0  0  0  0  0  0  0  0  0  0  0
    7.3689   -1.7316   19.1907 H   0  0  0  0  0  0  0  0  0  0  0  0
    6.0621   -3.2962   21.3229 H   0  0  0  0  0  0  0  0  0  0  0  0
    7.3639   -2.4740   20.3980 H   0  0  0  0  0  0  0  0  0  0  0  0
    7.2859   -2.0244   23.3802 H   0  0  0  0  0  0  0  0  0  0  0  0
    7.8139   -3.6413   22.8028 H   0  0  0  0  0  0  0  0  0  0  0  0
    9.2270   -1.8040   21.2680 H   0  0  0  0  0  0  0  0  0  0  0  0
   12.2169   -2.9783   22.2705 H   0  0  0  0  0  0  0  0  0  0  0  0
   14.5020    0.5140   22.0000 H   0  0  0  0  0  0  0  0  0  0  0  0
   13.7140    2.7374   22.5230 H   0  0  0  0  0  0  0  0  0  0  0  0
   11.8138    4.1222   23.2894 H   0  0  0  0  0  0  0  0  0  0  0  0
    9.6373    3.0780   23.8486 H   0  0  0  0  0  0  0  0  0  0  0  0
  1  2  1  0
  2  3  1  0
  3  4  2  0
  4  5  1  0
  5  6  2  0
  6  7  1  0
  7  8  2  0
  8  9  1  0
  9 10  1  0
 10 11  1  0
 11 12  1  0
 12 13  1  0
 13 14  2  0
 13 15  1  0
 15 16  2  0
 16 17  1  0
 17 18  2  0
 17 19  1  0
 19 20  1  0
 20 21  2  0
 21 22  1  0
 22 23  2  0
 23 24  1  0
 24 25  1  0
 24 26  2  0
  8  3  1  0
 26 15  1  0
 26 20  1  0
  1 27  1  0
  1 28  1  0
  1 29  1  0
  4 30  1  0
  5 31  1  0
  6 32  1  0
  7 33  1  0
 10 34  1  0
 10 35  1  0
 11 36  1  0
 11 37  1  0
 12 38  1  0
 16 39  1  0
 19 40  1  0
 21 41  1  0
 22 42  1  0
 23 43  1  0
M  END
>  <meeko>  (1) 
{"is_sidechain": [false], "free_energy": -7.12, "intermolecular_energy": -9.618, "internal_energy": -0.685}

$$$$
N3R
     RDKit          3D

 43 45  0  0  0  0  0  0  0  0999 V2000
    3.2960    2.7710   19.5420 C   0  0  0  0  0  0  0  0  0  0  0  0
    4.1870    2.0400   20.3880 O   0  0  0  0  0  0  0  0  0  0  0  0
    5.0760    1.2120   19.7790 C   0  0  0  0  0  0  0  0  0  0  0  0
    5.4240    1.4200   18.4540 C   0  0  0  0  0  0  0  0  0  0  0  0
    6.3280    0.5760   17.8360 C   0  0  0  0  0  0  0  0  0  0  0  0
    6.8870   -0.4760   18.5370 C   0  0  0  0  0  0  0  0  0  0  0  0
    6.5450   -0.6890   19.8600 C   0  0  0  0  0  0  0  0  0  0  0  0
    5.6390    0.1520   20.4850 C   0  0  0  0  0  0  0  0  0  0  0  0
    5.3010   -0.0550   21.7850 O   0  0  0  0  0  0  0  0  0  0  0  0
    6.3530    0.0180   22.7490 C   0  0  0  0  0  0  0  0  0  0  0  0
    6.6770    1.4840   23.0400 C   0  0  0  0  0  0  0  0  0  0  0  0
    8.1200    1.6350   23.2440 N   0  0  0  0  0  0  0  0  0  0  0  0
    8.9290    1.8580   22.1900 C   0  0  0  0  0  0  0  0  0  0  0  0
    8.4550    2.0310   21.0850 O   0  0  0  0  0  0  0  0  0  0  0  0
   10.4010    1.8910   22.3780 C   0  0  0  0  0  0  0  0  0  0  0  0
   11.0460    3.0640   22.6450 C   0  0  0  0  0  0  0  0  0  0  0  0
   12.4510    3.0770   22.8160 C   0  0  0  0  0  0  0  0  0  0  0  0
   13.0120    4.1350   23.0430 O   0  0  0  0  0  0  0  0  0  0  0  0
   13.1820    1.9530   22.7330 N   0  0  0  0  0  0  0  0  0  0  0  0
   12.5910    0.7330   22.4770 C   0  0  0  0  0  0  0  0  0  0  0  0
   13.3550   -0.4260   22.3970 C   0  0  0  0  0  0  0  0  0  0  0  0
   12.7460   -1.6350   22.1400 C   0  0  0  0  0  0  0  0  0  0  0  0
   11.3730   -1.7120   21.9580 C   0  0  0  0  0  0  0  0  0  0  0  0
   10.5940   -0.5760   22.0310 C   0  0  0  0  0  0  0  0  0  0  0  0
    9.2570   -0.6550   21.8530 F   0  0  0  0  0  0  0  0  0  0  0  0
   11.1990    0.6590   22.2920 C   0  0  0  0  0  0  0  0  0  0  0  0
    2.5930    3.3477   20.1611 H   0  0  0  0  0  0  0  0  0  0  0  0
    3.8744    3.4582   18.9070 H   0  0  0  0  0  0  0  0  0  0  0  0
    2.7350    2.0695   18.9070 H   0  0  0  0  0  0  0  0  0  0  0  0
    4.9810    2.2566   17.8938 H   0  0  0  0  0  0  0  0  0  0  0  0
    6.6030    0.7421   16.7840 H   0  0  0  0  0  0  0  0  0  0  0  0
    7.6056   -1.1454   18.0414 H   0  0  0  0  0  0  0  0  0  0  0  0
    6.9924   -1.5262   20.4159 H   0  0  0  0  0  0  0  0  0  0  0  0
    6.0346   -0.4784   23.6775 H   0  0  0  0  0  0  0  0  0  0  0  0
    7.2483   -0.4838   22.3533 H   0  0  0  0  0  0  0  0  0  0  0  0
    6.3601    2.1052   22.1893 H   0  0  0  0  0  0  0  0  0  0  0  0
    6.1434    1.8040   23.9471 H   0  0  0  0  0  0  0  0  0  0  0  0
    8.4930    1.5750   24.1370 H   0  0  0  0  0  0  0  0  0  0  0  0
   10.4736    3.9997   22.7273 H   0  0  0  0  0  0  0  0  0  0  0  0
   14.1430    1.9990   22.8590 H   0  0  0  0  0  0  0  0  0  0  0  0
   14.4448   -0.3778   22.5388 H   0  0  0  0  0  0  0  0  0  0  0  0
   13.3551   -2.5489   22.0785 H   0  0  0  0  0  0  0  0  0  0  0  0
   10.9025   -2.6852   21.7542 H   0  0  0  0  0  0  0  0  0  0  0  0
  1  2  1  0
  2  3  1  0
  3  4  2  0
  4  5  1  0
  5  6  2  0
  6  7  1  0
  7  8  2  0
  8  9  1  0
  9 10  1  0
 10 11  1  0
 11 12  1  0
 12 13  1  0
 13 14  2  0
 13 15  1  0
 15 16  2  0
 16 17  1  0
 17 18  2  0
 17 19  1  0
 19 20  1  0
 20 21  2  0
 21 22  1  0
 22 23  2  0
 23 24  1  0
 24 25  1  0
 24 26  2  0
  8  3  1  0
 26 15  1  0
 26 20  1  0
  1 27  1  0
  1 28  1  0
  1 29  1  0
  4 30  1  0
  5 31  1  0
  6 32  1  0
  7 33  1  0
 10 34  1  0
 10 35  1  0
 11 36  1  0
 11 37  1  0
 12 38  1  0
 16 39  1  0
 19 40  1  0
 21 41  1  0
 22 42  1  0
 23 43  1  0
M  END
>  <meeko>  (2) 
{"is_sidechain": [false], "free_energy": -7.095, "intermolecular_energy": -9.391, "internal_energy": -0.879}

$$$$
N3R
     RDKit          3D

 43 45  0  0  0  0  0  0  0  0999 V2000
    8.7550    2.0690   21.8040 C   0  0  0  0  0  0  0  0  0  0  0  0
    9.5860    1.0070   21.3300 O   0  0  0  0  0  0  0  0  0  0  0  0
   10.8170    0.8880   21.8940 C   0  0  0  0  0  0  0  0  0  0  0  0
   11.5050    2.0190   22.3040 C   0  0  0  0  0  0  0  0  0  0  0  0
   12.7570    1.8960   22.8770 C   0  0  0  0  0  0  0  0  0  0  0  0
   13.3270    0.6470   23.0420 C   0  0  0  0  0  0  0  0  0  0  0  0
   12.6460   -0.4850   22.6340 C   0  0  0  0  0  0  0  0  0  0  0  0
   11.3910   -0.3690   22.0590 C   0  0  0  0  0  0  0  0  0  0  0  0
   10.7200   -1.4820   21.6570 O   0  0  0  0  0  0  0  0  0  0  0  0
   10.1780   -2.3170   22.6820 C   0  0  0  0  0  0  0  0  0  0  0  0
    8.7260   -2.6610   22.3450 C   0  0  0  0  0  0  0  0  0  0  0  0
    8.0890   -1.5090   21.7010 N   0  0  0  0  0  0  0  0  0  0  0  0
    6.9490   -1.6740   21.0000 C   0  0  0  0  0  0  0  0  0  0  0  0
    6.3980   -2.7560   20.9820 O   0  0  0  0  0  0  0  0  0  0  0  0
    6.3690   -0.5340   20.2490 C   0  0  0  0  0  0  0  0  0  0  0  0
    6.6650   -0.3410   18.9300 C   0  0  0  0  0  0  0  0  0  0  0  0
    6.1060    0.7560   18.2310 C   0  0  0  0  0  0  0  0  0  0  0  0
    6.3890    0.9180   17.0570 O   0  0  0  0  0  0  0  0  0  0  0  0
    5.2720    1.6230   18.8290 N   0  0  0  0  0  0  0  0  0  0  0  0
    4.9230    1.4790   20.1560 C   0  0  0  0  0  0  0  0  0  0  0  0
    4.0570    2.3790   20.7660 C   0  0  0  0  0  0  0  0  0  0  0  0
    3.7210    2.2190   22.0930 C   0  0  0  0  0  0  0  0  0  0  0  0
    4.2400    1.1660   22.8340 C   0  0  0  0  0  0  0  0  0  0  0  0
    5.1030    0.2610   22.2510 C   0  0  0  0  0  0  0  0  0  0  0  0
    5.6070   -0.7620   22.9750 F   0  0  0  0  0  0  0  0  0  0  0  0
    5.4530    0.4110   20.9040 C   0  0  0  0  0  0  0  0  0  0  0  0
    8.7538    2.0706   22.9040 H   0  0  0  0  0  0  0  0  0  0  0  0
    9.1432    3.0303   21.4364 H   0  0  0  0  0  0  0  0  0  0  0  0
    7.7285    1.9234   21.4364 H   0  0  0  0  0  0  0  0  0  0  0  0
   11.0550    3.0142   22.1735 H   0  0  0  0  0  0  0  0  0  0  0  0
   13.3016    2.7945   23.2027 H   0  0  0  0  0  0  0  0  0  0  0  0
   14.3235    0.5539   23.4984 H   0  0  0  0  0  0  0  0  0  0  0  0
   13.1008   -1.4778   22.7660 H   0  0  0  0  0  0  0  0  0  0  0  0
   10.7677   -3.2430   22.7506 H   0  0  0  0  0  0  0  0  0  0  0  0
   10.2151   -1.7864   23.6449 H   0  0  0  0  0  0  0  0  0  0  0  0
    8.7022   -3.5228   21.6618 H   0  0  0  0  0  0  0  0  0  0  0  0
    8.1840   -2.9112   23.2689 H   0  0  0  0  0  0  0  0  0  0  0  0
    8.4860   -0.6280   21.7790 H   0  0  0  0  0  0  0  0  0  0  0  0
    7.3383   -1.0384   18.4101 H   0  0  0  0  0  0  0  0  0  0  0  0
    4.9050    2.3610   18.3190 H   0  0  0  0  0  0  0  0  0  0  0  0
    3.6401    3.2183   20.1900 H   0  0  0  0  0  0  0  0  0  0  0  0
    3.0341    2.9334   22.5702 H   0  0  0  0  0  0  0  0  0  0  0  0
    3.9616    1.0525   23.8921 H   0  0  0  0  0  0  0  0  0  0  0  0
  1  2  1  0
  2  3  1  0
  3  4  2  0
  4  5  1  0
  5  6  2  0
  6  7  1  0
  7  8  2  0
  8  9  1  0
  9 10  1  0
 10 11  1  0
 11 12  1  0
 12 13  1  0
 13 14  2  0
 13 15  1  0
 15 16  2  0
 16 17  1  0
 17 18  2  0
 17 19  1  0
 19 20  1  0
 20 21  2  0
 21 22  1  0
 22 23  2  0
 23 24  1  0
 24 25  1  0
 24 26  2  0
  8  3  1  0
 26 15  1  0
 26 20  1  0
  1 27  1  0
  1 28  1  0
  1 29  1  0
  4 30  1  0
  5 31  1  0
  6 32  1  0
  7 33  1  0
 10 34  1  0
 10 35  1  0
 11 36  1  0
 11 37  1  0
 12 38  1  0
 16 39  1  0
 19 40  1  0
 21 41  1  0
 22 42  1  0
 23 43  1  0
M  END
>  <meeko>  (3) 
{"is_sidechain": [false], "free_energy": -7.052, "intermolecular_energy": -9.045, "internal_energy": -1.166}

$$$$
N3R
     RDKit          3D

 43 45  0  0  0  0  0  0  0  0999 V2000
    7.8160   -0.0390   18.7220 C   0  0  0  0  0  0  0  0  0  0  0  0
    8.2900    0.0580   20.0680 O   0  0  0  0  0  0  0  0  0  0  0  0
    7.6220    0.9030   20.8970 C   0  0  0  0  0  0  0  0  0  0  0  0
    7.9000    2.2600   20.8780 C   0  0  0  0  0  0  0  0  0  0  0  0
    7.2200    3.1170   21.7230 C   0  0  0  0  0  0  0  0  0  0  0  0
    6.2620    2.6240   22.5890 C   0  0  0  0  0  0  0  0  0  0  0  0
    5.9790    1.2710   22.6140 C   0  0  0  0  0  0  0  0  0  0  0  0
    6.6580    0.4060   21.7700 C   0  0  0  0  0  0  0  0  0  0  0  0
    6.3810   -0.9250   21.7930 O   0  0  0  0  0  0  0  0  0  0  0  0
    6.7820   -1.6500   22.9580 C   0  0  0  0  0  0  0  0  0  0  0  0
    7.7680   -2.7500   22.5590 C   0  0  0  0  0  0  0  0  0  0  0  0
    9.0550   -2.1460   22.2030 N   0  0  0  0  0  0  0  0  0  0  0  0
    9.9900   -1.9440   23.1520 C   0  0  0  0  0  0  0  0  0  0  0  0
    9.8070   -2.3510   24.2820 O   0  0  0  0  0  0  0  0  0  0  0  0
   11.2440   -1.2250   22.8170 C   0  0  0  0  0  0  0  0  0  0  0  0
   12.3300   -1.8980   22.3360 C   0  0  0  0  0  0  0  0  0  0  0  0
   13.5200   -1.1960   22.0270 C   0  0  0  0  0  0  0  0  0  0  0  0
   14.4830   -1.8130   21.6080 O   0  0  0  0  0  0  0  0  0  0  0  0
   13.6140    0.1360   22.1850 N   0  0  0  0  0  0  0  0  0  0  0  0
   12.5500    0.8770   22.6560 C   0  0  0  0  0  0  0  0  0  0  0  0
   12.6560    2.2540   22.8130 C   0  0  0  0  0  0  0  0  0  0  0  0
   11.5820    2.9770   23.2860 C   0  0  0  0  0  0  0  0  0  0  0  0
   10.3900    2.3450   23.6110 C   0  0  0  0  0  0  0  0  0  0  0  0
   10.2620    0.9790   23.4650 C   0  0  0  0  0  0  0  0  0  0  0  0
    9.1000    0.3670   23.7830 F   0  0  0  0  0  0  0  0  0  0  0  0
   11.3440    0.2330   22.9860 C   0  0  0  0  0  0  0  0  0  0  0  0
    6.7383   -0.2595   18.7278 H   0  0  0  0  0  0  0  0  0  0  0  0
    7.9925    0.9139   18.2015 H   0  0  0  0  0  0  0  0  0  0  0  0
    8.3526   -0.8459   18.2015 H   0  0  0  0  0  0  0  0  0  0  0  0
    8.6620    2.6556   20.1904 H   0  0  0  0  0  0  0  0  0  0  0  0
    7.4419    4.1943   21.7062 H   0  0  0  0  0  0  0  0  0  0  0  0
    5.7236    3.3097   23.2597 H   0  0  0  0  0  0  0  0  0  0  0  0
    5.2155    0.8811   23.3032 H   0  0  0  0  0  0  0  0  0  0  0  0
    7.2659   -0.9638   23.6686 H   0  0  0  0  0  0  0  0  0  0  0  0
    5.8981   -2.1032   23.4305 H   0  0  0  0  0  0  0  0  0  0  0  0
    7.9081   -3.4409   23.4034 H   0  0  0  0  0  0  0  0  0  0  0  0
    7.3708   -3.3031   21.6951 H   0  0  0  0  0  0  0  0  0  0  0  0
    9.2340   -1.8910   21.2850 H   0  0  0  0  0  0  0  0  0  0  0  0
   12.2804   -2.9869   22.1883 H   0  0  0  0  0  0  0  0  0  0  0  0
   14.4440    0.5850   21.9600 H   0  0  0  0  0  0  0  0  0  0  0  0
   13.5960    2.7662   22.5600 H   0  0  0  0  0  0  0  0  0  0  0  0
   11.6707    4.0667   23.4072 H   0  0  0  0  0  0  0  0  0  0  0  0
    9.5423    2.9365   23.9872 H   0  0  0  0  0  0  0  0  0  0  0  0
  1  2  1  0
  2  3  1  0
  3  4  2  0
  4  5  1  0
  5  6  2  0
  6  7  1  0
  7  8  2  0
  8  9  1  0
  9 10  1  0
 10 11  1  0
 11 12  1  0
 12 13  1  0
 13 14  2  0
 13 15  1  0
 15 16  2  0
 16 17  1  0
 17 18  2  0
 17 19  1  0
 19 20  1  0
 20 21  2  0
 21 22  1  0
 22 23  2  0
 23 24  1  0
 24 25  1  0
 24 26  2  0
  8  3  1  0
 26 15  1  0
 26 20  1  0
  1 27  1  0
  1 28  1  0
  1 29  1  0
  4 30  1  0
  5 31  1  0
  6 32  1  0
  7 33  1  0
 10 34  1  0
 10 35  1  0
 11 36  1  0
 11 37  1  0
 12 38  1  0
 16 39  1  0
 19 40  1  0
 21 41  1  0
 22 42  1  0
 23 43  1  0
M  END
>  <meeko>  (4) 
{"is_sidechain": [false], "free_energy": -6.988, "intermolecular_energy": -8.4, "internal_energy": -1.725}

$$$$
N3R
     RDKit          3D

 43 45  0  0  0  0  0  0  0  0999 V2000
    9.5840   -2.2910   22.1580 C   0  0  0  0  0  0  0  0  0  0  0  0
   10.1380   -1.3280   23.0570 O   0  0  0  0  0  0  0  0  0  0  0  0
   11.4360   -0.9750   22.8590 C   0  0  0  0  0  0  0  0  0  0  0  0
   12.3320   -1.8890   22.3280 C   0  0  0  0  0  0  0  0  0  0  0  0
   13.6510   -1.5290   22.1290 C   0  0  0  0  0  0  0  0  0  0  0  0
   14.0810   -0.2560   22.4580 C   0  0  0  0  0  0  0  0  0  0  0  0
   13.1930    0.6610   22.9880 C   0  0  0  0  0  0  0  0  0  0  0  0
   11.8700    0.3060   23.1910 C   0  0  0  0  0  0  0  0  0  0  0  0
   10.9940    1.2070   23.7130 O   0  0  0  0  0  0  0  0  0  0  0  0
   10.8670    2.4560   23.0310 C   0  0  0  0  0  0  0  0  0  0  0  0
    9.6840    3.2350   23.6110 C   0  0  0  0  0  0  0  0  0  0  0  0
    8.6250    3.3350   22.6050 N   0  0  0  0  0  0  0  0  0  0  0  0
    7.5760    2.4890   22.6430 C   0  0  0  0  0  0  0  0  0  0  0  0
    7.4590    1.7080   23.5670 O   0  0  0  0  0  0  0  0  0  0  0  0
    6.5660    2.5090   21.5580 C   0  0  0  0  0  0  0  0  0  0  0  0
    5.4980    3.3580   21.6120 C   0  0  0  0  0  0  0  0  0  0  0  0
    4.5400    3.3600   20.5700 C   0  0  0  0  0  0  0  0  0  0  0  0
    3.5870    4.1160   20.6400 O   0  0  0  0  0  0  0  0  0  0  0  0
    4.6540    2.5470   19.5050 N   0  0  0  0  0  0  0  0  0  0  0  0
    5.7150    1.6740   19.3830 C   0  0  0  0  0  0  0  0  0  0  0  0
    5.8270    0.8400   18.2770 C   0  0  0  0  0  0  0  0  0  0  0  0
    6.8950   -0.0260   18.1730 C   0  0  0  0  0  0  0  0  0  0  0  0
    7.8640   -0.0780   19.1650 C   0  0  0  0  0  0  0  0  0  0  0  0
    7.7730    0.7390   20.2730 C   0  0  0  0  0  0  0  0  0  0  0  0
    8.7180    0.6850   21.2370 F   0  0  0  0  0  0  0  0  0  0  0  0
    6.6950    1.6230   20.3910 C   0  0  0  0  0  0  0  0  0  0  0  0
    9.1166   -3.1035   22.7336 H   0  0  0  0  0  0  0  0  0  0  0  0
    8.8260   -1.8075   21.5242 H   0  0  0  0  0  0  0  0  0  0  0  0
   10.3830   -2.7032   21.5242 H   0  0  0  0  0  0  0  0  0  0  0  0
   11.9929   -2.9018   22.0648 H   0  0  0  0  0  0  0  0  0  0  0  0
   14.3608   -2.2563   21.7080 H   0  0  0  0  0  0  0  0  0  0  0  0
   15.1318    0.0270   22.2975 H   0  0  0  0  0  0  0  0  0  0  0  0
   13.5372    1.6728   23.2485 H   0  0  0  0  0  0  0  0  0  0  0  0
   11.7899    3.0403   23.1607 H   0  0  0  0  0  0  0  0  0  0  0  0
   10.6965    2.2736   21.9597 H   0  0  0  0  0  0  0  0  0  0  0  0
    9.2989    2.7103   24.4978 H   0  0  0  0  0  0  0  0  0  0  0  0
   10.0146    4.2445   23.8969 H   0  0  0  0  0  0  0  0  0  0  0  0
    8.6770    4.0090   21.9100 H   0  0  0  0  0  0  0  0  0  0  0  0
    5.3820    4.0412   22.4663 H   0  0  0  0  0  0  0  0  0  0  0  0
    3.9810    2.5780   18.8080 H   0  0  0  0  0  0  0  0  0  0  0  0
    5.0642    0.8707   17.4851 H   0  0  0  0  0  0  0  0  0  0  0  0
    6.9798   -0.6825   17.2945 H   0  0  0  0  0  0  0  0  0  0  0  0
    8.7096   -0.7747   19.0673 H   0  0  0  0  0  0  0  0  0  0  0  0
  1  2  1  0
  2  3  1  0
  3  4  2  0
  4  5  1  0
  5  6  2  0
  6  7  1  0
  7  8  2  0
  8  9  1  0
  9 10  1  0
 10 11  1  0
 11 12  1  0
 12 13  1  0
 13 14  2  0
 13 15  1  0
 15 16  2  0
 16 17  1  0
 17 18  2  0
 17 19  1  0
 19 20  1  0
 20 21  2  0
 21 22  1  0
 22 23  2  0
 23 24  1  0
 24 25  1  0
 24 26  2  0
  8  3  1  0
 26 15  1  0
 26 20  1  0
  1 27  1  0
  1 28  1  0
  1 29  1  0
  4 30  1  0
  5 31  1  0
  6 32  1  0
  7 33  1  0
 10 34  1  0
 10 35  1  0
 11 36  1  0
 11 37  1  0
 12 38  1  0
 16 39  1  0
 19 40  1  0
 21 41  1  0
 22 42  1  0
 23 43  1  0
M  END
>  <meeko>  (5) 
{"is_sidechain": [false], "free_energy": -6.911, "intermolecular_energy": -9.143, "internal_energy": -0.877}

$$$$
