MODEL 1
REMARK VINA RESULT:    -7.002      0.000      0.000
REMARK INTER + INTRA:         -10.491
REMARK INTER:                  -9.458
REMARK INTRA:                  -1.033
REMARK UNBOUND:                -1.033
REMARK SMILES COc1ncccc1OCCNC(=O)c1cc(=O)[nH]c2cccc(F)c12
REMARK SMILES IDX 10 1 11 2 12 3 13 4 14 5 15 7 19 8 20 9 17 10 21 11 26 12
REMARK SMILES IDX 16 13 22 14 24 15 23 16 18 18 25 19 9 20 8 21 7 22 3 23 6 24
REMARK SMILES IDX 4 25 5 26 2 27 1 28
REMARK H PARENT 12 6 19 17
ROOT
ATOM      1  C   UNL     1       6.823  -2.344  21.426  1.00  0.00     0.251 C 
ENDROOT
BRANCH   1   2
ATOM      2  C   UNL     1       8.044  -2.949  22.116  1.00  0.00     0.157 C 
BRANCH   2   3
ATOM      3  N   UNL     1       9.195  -2.071  22.015  1.00  0.00    -0.349 N 
ATOM      4  C   UNL     1      10.004  -1.831  23.095  1.00  0.00     0.252 C 
ATOM      5  O   UNL     1       9.740  -2.155  24.247  1.00  0.00    -0.269 OA
ATOM      6  H   UNL     1       9.557  -1.903  21.081  1.00  0.00     0.163 HD
BRANCH   4   7
ATOM      7  C   UNL     1      11.229  -1.056  22.768  1.00  0.00     0.057 A 
ATOM      8  N   UNL     1      13.692   0.134  22.233  1.00  0.00    -0.322 N 
ATOM      9  C   UNL     1      12.631   0.965  22.615  1.00  0.00     0.052 A 
ATOM     10  C   UNL     1      13.580  -1.219  22.080  1.00  0.00     0.249 A 
ATOM     11  C   UNL     1      12.850   2.343  22.715  1.00  0.00     0.027 A 
ATOM     12  C   UNL     1      11.369   0.405  22.879  1.00  0.00     0.047 A 
ATOM     13  C   UNL     1      12.264  -1.817  22.377  1.00  0.00     0.086 A 
ATOM     14  C   UNL     1      11.800   3.187  23.070  1.00  0.00     0.005 A 
ATOM     15  C   UNL     1      10.328   1.277  23.211  1.00  0.00     0.133 A 
ATOM     16  C   UNL     1      10.537   2.653  23.313  1.00  0.00     0.040 A 
ATOM     17  H   UNL     1      14.602   0.523  22.023  1.00  0.00     0.170 HD
ATOM     18  O   UNL     1      14.526  -1.916  21.730  1.00  0.00    -0.270 OA
ATOM     19  F   UNL     1       9.090   0.819  23.436  1.00  0.00    -0.206 F 
ENDBRANCH   4   7
ENDBRANCH   2   3
ENDBRANCH   1   2
BRANCH   1  20
ATOM     20  O   UNL     1       6.836  -0.922  21.640  1.00  0.00    -0.486 OA
BRANCH  20  21
ATOM     21  C   UNL     1       6.436  -0.263  20.513  1.00  0.00     0.181 A 
ATOM     22  C   UNL     1       7.179  -0.398  19.345  1.00  0.00     0.054 A 
ATOM     23  C   UNL     1       5.333   0.591  20.510  1.00  0.00     0.256 A 
ATOM     24  C   UNL     1       6.778   0.291  18.206  1.00  0.00     0.024 A 
ATOM     25  N   UNL     1       4.920   1.265  19.412  1.00  0.00    -0.219 NA
ATOM     26  C   UNL     1       5.651   1.097  18.288  1.00  0.00     0.115 A 
BRANCH  23  27
ATOM     27  O   UNL     1       4.628   0.729  21.697  1.00  0.00    -0.478 OA
ATOM     28  C   UNL     1       3.581   1.691  21.604  1.00  0.00     0.280 C 
ENDBRANCH  23  27
ENDBRANCH  20  21
ENDBRANCH   1  20
TORSDOF 6
ENDMDL
MODEL 2
REMARK VINA RESULT:    -6.965      2.307      3.280
REMARK INTER + INTRA:         -10.440
REMARK INTER:                  -9.230
REMARK INTRA:                  -1.211
REMARK UNBOUND:                -1.033
REMARK SMILES COc1ncccc1OCCNC(=O)c1cc(=O)[nH]c2cccc(F)c12
REMARK SMILES IDX 10 1 11 2 12 3 13 4 14 5 15 7 19 8 20 9 17 10 21 11 26 12
REMARK SMILES IDX 16 13 22 14 24 15 23 16 18 18 25 19 9 20 8 21 7 22 3 23 6 24
REMARK SMILES IDX 4 25 5 26 2 27 1 28
REMARK H PARENT 12 6 19 17
ROOT
ATOM      1  C   UNL     1       6.199  -0.078  22.702  1.00  0.00     0.251 C 
ENDROOT
BRANCH   1   2
ATOM      2  C   UNL     1       6.742   1.260  23.199  1.00  0.00     0.157 C 
BRANCH   2   3
ATOM      3  N   UNL     1       8.192   1.257  23.237  1.00  0.00    -0.349 N 
ATOM      4  C   UNL     1       8.934   1.640  22.150  1.00  0.00     0.252 C 
ATOM      5  O   UNL     1       8.478   1.822  21.027  1.00  0.00    -0.269 OA
ATOM      6  H   UNL     1       8.623   1.275  24.157  1.00  0.00     0.163 HD
BRANCH   4   7
ATOM      7  C   UNL     1      10.390   1.747  22.422  1.00  0.00     0.057 A 
ATOM      8  N   UNL     1      13.100   2.254  22.838  1.00  0.00    -0.322 N 
ATOM      9  C   UNL     1      12.715   0.938  22.548  1.00  0.00     0.052 A 
ATOM     10  C   UNL     1      12.222   3.293  22.958  1.00  0.00     0.249 A 
ATOM     11  C   UNL     1      13.697  -0.055  22.475  1.00  0.00     0.027 A 
ATOM     12  C   UNL     1      11.357   0.640  22.346  1.00  0.00     0.047 A 
ATOM     13  C   UNL     1      10.796   2.991  22.727  1.00  0.00     0.086 A 
ATOM     14  C   UNL     1      13.330  -1.373  22.210  1.00  0.00     0.005 A 
ATOM     15  C   UNL     1      11.014  -0.694  22.105  1.00  0.00     0.133 A 
ATOM     16  C   UNL     1      11.987  -1.692  22.030  1.00  0.00     0.040 A 
ATOM     17  H   UNL     1      14.071   2.483  23.003  1.00  0.00     0.170 HD
ATOM     18  O   UNL     1      12.590   4.431  23.229  1.00  0.00    -0.270 OA
ATOM     19  F   UNL     1       9.736  -1.059  21.943  1.00  0.00    -0.206 F 
ENDBRANCH   4   7
ENDBRANCH   2   3
ENDBRANCH   1   2
BRANCH   1  20
ATOM     20  O   UNL     1       5.076   0.176  21.841  1.00  0.00    -0.486 OA
BRANCH  20  21
ATOM     21  C   UNL     1       5.477   0.241  20.536  1.00  0.00     0.181 A 
ATOM     22  C   UNL     1       6.286  -0.766  20.022  1.00  0.00     0.054 A 
ATOM     23  C   UNL     1       5.144   1.319  19.716  1.00  0.00     0.256 A 
ATOM     24  C   UNL     1       6.706  -0.684  18.699  1.00  0.00     0.024 A 
ATOM     25  N   UNL     1       5.535   1.415  18.425  1.00  0.00    -0.219 NA
ATOM     26  C   UNL     1       6.304   0.411  17.948  1.00  0.00     0.115 A 
BRANCH  23  27
ATOM     27  O   UNL     1       4.360   2.323  20.265  1.00  0.00    -0.478 OA
ATOM     28  C   UNL     1       5.115   3.480  20.614  1.00  0.00     0.280 C 
ENDBRANCH  23  27
ENDBRANCH  20  21
ENDBRANCH   1  20
TORSDOF 6
ENDMDL
MODEL 3
REMARK VINA RESULT:    -6.952      0.910      1.765
REMARK INTER + INTRA:         -10.424
REMARK INTER:                  -9.391
REMARK INTRA:                  -1.033
REMARK UNBOUND:                -1.033
REMARK SMILES COc1ncccc1OCCNC(=O)c1cc(=O)[nH]c2cccc(F)c12
REMARK SMILES IDX 10 1 11 2 12 3 13 4 14 5 15 7 19 8 20 9 17 10 21 11 26 12
REMARK SMILES IDX 16 13 22 14 24 15 23 16 18 18 25 19 9 20 8 21 7 22 3 23 6 24
REMARK SMILES IDX 4 25 5 26 2 27 1 28
REMARK H PARENT 12 6 19 17
ROOT
ATOM      1  C   UNL     1       6.861  -2.689  21.640  1.00  0.00     0.251 C 
ENDROOT
BRANCH   1   2
ATOM      2  C   UNL     1       8.071  -3.137  22.457  1.00  0.00     0.157 C 
BRANCH   2   3
ATOM      3  N   UNL     1       9.189  -2.228  22.284  1.00  0.00    -0.349 N 
ATOM      4  C   UNL     1      10.057  -1.961  23.311  1.00  0.00     0.252 C 
ATOM      5  O   UNL     1       9.873  -2.289  24.478  1.00  0.00    -0.269 OA
ATOM      6  H   UNL     1       9.488  -2.053  21.328  1.00  0.00     0.163 HD
BRANCH   4   7
ATOM      7  C   UNL     1      11.237  -1.154  22.907  1.00  0.00     0.057 A 
ATOM      8  N   UNL     1      13.629   0.104  22.223  1.00  0.00    -0.322 N 
ATOM      9  C   UNL     1      12.562   0.908  22.647  1.00  0.00     0.052 A 
ATOM     10  C   UNL     1      13.553  -1.255  22.098  1.00  0.00     0.249 A 
ATOM     11  C   UNL     1      12.742   2.293  22.713  1.00  0.00     0.027 A 
ATOM     12  C   UNL     1      11.335   0.312  22.987  1.00  0.00     0.047 A 
ATOM     13  C   UNL     1      12.274  -1.888  22.474  1.00  0.00     0.086 A 
ATOM     14  C   UNL     1      11.685   3.110  23.110  1.00  0.00     0.005 A 
ATOM     15  C   UNL     1      10.285   1.157  23.359  1.00  0.00     0.133 A 
ATOM     16  C   UNL     1      10.454   2.540  23.428  1.00  0.00     0.040 A 
ATOM     17  H   UNL     1      14.513   0.518  21.960  1.00  0.00     0.170 HD
ATOM     18  O   UNL     1      14.502  -1.928  21.710  1.00  0.00    -0.270 OA
ATOM     19  F   UNL     1       9.076   0.664  23.657  1.00  0.00    -0.206 F 
ENDBRANCH   4   7
ENDBRANCH   2   3
ENDBRANCH   1   2
BRANCH   1  20
ATOM     20  O   UNL     1       7.243  -1.556  20.842  1.00  0.00    -0.486 OA
BRANCH  20  21
ATOM     21  C   UNL     1       6.313  -0.561  20.944  1.00  0.00     0.181 A 
ATOM     22  C   UNL     1       5.784  -0.249  22.192  1.00  0.00     0.054 A 
ATOM     23  C   UNL     1       5.833   0.117  19.824  1.00  0.00     0.256 A 
ATOM     24  C   UNL     1       4.823   0.752  22.286  1.00  0.00     0.024 A 
ATOM     25  N   UNL     1       4.904   1.098  19.894  1.00  0.00    -0.219 NA
ATOM     26  C   UNL     1       4.424   1.393  21.122  1.00  0.00     0.115 A 
BRANCH  23  27
ATOM     27  O   UNL     1       6.357  -0.235  18.589  1.00  0.00    -0.478 OA
ATOM     28  C   UNL     1       6.157   0.771  17.601  1.00  0.00     0.280 C 
ENDBRANCH  23  27
ENDBRANCH  20  21
ENDBRANCH   1  20
TORSDOF 6
ENDMDL
MODEL 4
REMARK VINA RESULT:    -6.849      2.207      7.247
REMARK INTER + INTRA:         -10.284
REMARK INTER:                  -9.224
REMARK INTRA:                  -1.060
REMARK UNBOUND:                -1.033
REMARK SMILES COc1ncccc1OCCNC(=O)c1cc(=O)[nH]c2cccc(F)c12
REMARK SMILES IDX 10 1 11 2 12 3 13 4 14 5 15 7 19 8 20 9 17 10 21 11 26 12
REMARK SMILES IDX 16 13 22 14 24 15 23 16 18 18 25 19 9 20 8 21 7 22 3 23 6 24
REMARK SMILES IDX 4 25 5 26 2 27 1 28
REMARK H PARENT 12 6 19 17
ROOT
ATOM      1  C   UNL     1      11.370   2.408  23.212  1.00  0.00     0.251 C 
ENDROOT
BRANCH   1   2
ATOM      2  C   UNL     1      10.111   3.173  23.611  1.00  0.00     0.157 C 
BRANCH   2   3
ATOM      3  N   UNL     1       9.095   3.091  22.578  1.00  0.00    -0.349 N 
ATOM      4  C   UNL     1       8.041   2.221  22.684  1.00  0.00     0.252 C 
ATOM      5  O   UNL     1       7.958   1.328  23.519  1.00  0.00    -0.269 OA
ATOM      6  H   UNL     1       9.013   3.890  21.957  1.00  0.00     0.163 HD
BRANCH   4   7
ATOM      7  C   UNL     1       7.009   2.396  21.630  1.00  0.00     0.057 A 
ATOM      8  N   UNL     1       4.880   2.835  19.884  1.00  0.00    -0.322 N 
ATOM      9  C   UNL     1       5.806   1.837  19.553  1.00  0.00     0.052 A 
ATOM     10  C   UNL     1       4.978   3.623  20.996  1.00  0.00     0.249 A 
ATOM     11  C   UNL     1       5.622   1.107  18.375  1.00  0.00     0.027 A 
ATOM     12  C   UNL     1       6.900   1.595  20.400  1.00  0.00     0.047 A 
ATOM     13  C   UNL     1       6.114   3.360  21.901  1.00  0.00     0.086 A 
ATOM     14  C   UNL     1       6.545   0.126  18.017  1.00  0.00     0.005 A 
ATOM     15  C   UNL     1       7.824   0.623  20.005  1.00  0.00     0.133 A 
ATOM     16  C   UNL     1       7.650  -0.112  18.831  1.00  0.00     0.040 A 
ATOM     17  H   UNL     1       4.096   3.033  19.277  1.00  0.00     0.170 HD
ATOM     18  O   UNL     1       4.158   4.499  21.250  1.00  0.00    -0.270 OA
ATOM     19  F   UNL     1       8.913   0.366  20.742  1.00  0.00    -0.206 F 
ENDBRANCH   4   7
ENDBRANCH   2   3
ENDBRANCH   1   2
BRANCH   1  20
ATOM     20  O   UNL     1      11.415   1.180  23.959  1.00  0.00    -0.486 OA
BRANCH  20  21
ATOM     21  C   UNL     1      12.138   0.236  23.289  1.00  0.00     0.181 A 
ATOM     22  C   UNL     1      13.461   0.503  22.951  1.00  0.00     0.054 A 
ATOM     23  C   UNL     1      11.573  -0.973  22.881  1.00  0.00     0.256 A 
ATOM     24  C   UNL     1      14.185  -0.455  22.251  1.00  0.00     0.024 A 
ATOM     25  N   UNL     1      12.262  -1.922  22.206  1.00  0.00    -0.219 NA
ATOM     26  C   UNL     1      13.551  -1.641  21.910  1.00  0.00     0.115 A 
BRANCH  23  27
ATOM     27  O   UNL     1      10.244  -1.200  23.206  1.00  0.00    -0.478 OA
ATOM     28  C   UNL     1       9.971  -2.574  23.467  1.00  0.00     0.280 C 
ENDBRANCH  23  27
ENDBRANCH  20  21
ENDBRANCH   1  20
TORSDOF 6
ENDMDL
MODEL 5
REMARK VINA RESULT:    -6.713      2.336      3.742
REMARK INTER + INTRA:         -10.101
REMARK INTER:                  -8.725
REMARK INTRA:                  -1.375
REMARK UNBOUND:                -1.033
REMARK SMILES COc1ncccc1OCCNC(=O)c1cc(=O)[nH]c2cccc(F)c12
REMARK SMILES IDX 10 1 11 2 12 3 13 4 14 5 15 7 19 8 20 9 17 10 21 11 26 12
REMARK SMILES IDX 16 13 22 14 24 15 23 16 18 18 25 19 9 20 8 21 7 22 3 23 6 24
REMARK SMILES IDX 4 25 5 26 2 27 1 28
REMARK H PARENT 12 6 19 17
ROOT
ATOM      1  C   UNL     1       6.081   2.812  21.865  1.00  0.00     0.251 C 
ENDROOT
BRANCH   1   2
ATOM      2  C   UNL     1       6.891   2.756  23.159  1.00  0.00     0.157 C 
BRANCH   2   3
ATOM      3  N   UNL     1       8.312   2.654  22.886  1.00  0.00    -0.349 N 
ATOM      4  C   UNL     1       9.232   2.616  23.902  1.00  0.00     0.252 C 
ATOM      5  O   UNL     1       8.978   2.854  25.078  1.00  0.00    -0.269 OA
ATOM      6  H   UNL     1       8.575   2.299  21.971  1.00  0.00     0.163 HD
BRANCH   4   7
ATOM      7  C   UNL     1      10.617   2.332  23.449  1.00  0.00     0.057 A 
ATOM      8  N   UNL     1      13.208   2.083  22.451  1.00  0.00    -0.322 N 
ATOM      9  C   UNL     1      12.486   0.909  22.701  1.00  0.00     0.052 A 
ATOM     10  C   UNL     1      12.727   3.338  22.696  1.00  0.00     0.249 A 
ATOM     11  C   UNL     1      13.086  -0.326  22.438  1.00  0.00     0.027 A 
ATOM     12  C   UNL     1      11.182   0.992  23.218  1.00  0.00     0.047 A 
ATOM     13  C   UNL     1      11.350   3.434  23.219  1.00  0.00     0.086 A 
ATOM     14  C   UNL     1      12.391  -1.504  22.702  1.00  0.00     0.005 A 
ATOM     15  C   UNL     1      10.516  -0.205  23.496  1.00  0.00     0.133 A 
ATOM     16  C   UNL     1      11.107  -1.443  23.237  1.00  0.00     0.040 A 
ATOM     17  H   UNL     1      14.154   2.040  22.095  1.00  0.00     0.170 HD
ATOM     18  O   UNL     1      13.392   4.345  22.480  1.00  0.00    -0.270 OA
ATOM     19  F   UNL     1       9.286  -0.204  24.028  1.00  0.00    -0.206 F 
ENDBRANCH   4   7
ENDBRANCH   2   3
ENDBRANCH   1   2
BRANCH   1  20
ATOM     20  O   UNL     1       5.627   1.484  21.552  1.00  0.00    -0.486 OA
BRANCH  20  21
ATOM     21  C   UNL     1       6.074   1.101  20.320  1.00  0.00     0.181 A 
ATOM     22  C   UNL     1       5.382   1.514  19.187  1.00  0.00     0.054 A 
ATOM     23  C   UNL     1       7.175   0.260  20.164  1.00  0.00     0.256 A 
ATOM     24  C   UNL     1       5.831   1.105  17.936  1.00  0.00     0.024 A 
ATOM     25  N   UNL     1       7.633  -0.145  18.957  1.00  0.00    -0.219 NA
ATOM     26  C   UNL     1       6.952   0.289  17.873  1.00  0.00     0.115 A 
BRANCH  23  27
ATOM     27  O   UNL     1       7.829  -0.160  21.313  1.00  0.00    -0.478 OA
ATOM     28  C   UNL     1       7.571  -1.526  21.623  1.00  0.00     0.280 C 
ENDBRANCH  23  27
ENDBRANCH  20  21
ENDBRANCH   1  20
TORSDOF 6
ENDMDL
