N3R_modified_N
     RDKit          3D

 42 44  0  0  0  0  0  0  0  0999 V2000
    3.5810    1.6910   21.6040 C   0  0  0  0  0  0  0  0  0  0  0  0
    4.6280    0.7290   21.6970 O   0  0  0  0  0  0  0  0  0  0  0  0
    5.3330    0.5910   20.5100 C   0  0  0  0  0  0  0  0  0  0  0  0
    4.9200    1.2650   19.4120 N   0  0  0  0  0  0  0  0  0  0  0  0
    5.6510    1.0970   18.2880 C   0  0  0  0  0  0  0  0  0  0  0  0
    6.7780    0.2910   18.2060 C   0  0  0  0  0  0  0  0  0  0  0  0
    7.1790   -0.3980   19.3450 C   0  0  0  0  0  0  0  0  0  0  0  0
    6.4360   -0.2630   20.5130 C   0  0  0  0  0  0  0  0  0  0  0  0
    6.8360   -0.9220   21.6400 O   0  0  0  0  0  0  0  0  0  0  0  0
    6.8230   -2.3440   21.4260 C   0  0  0  0  0  0  0  0  0  0  0  0
    8.0440   -2.9490   22.1160 C   0  0  0  0  0  0  0  0  0  0  0  0
    9.1950   -2.0710   22.0150 N   0  0  0  0  0  0  0  0  0  0  0  0
   10.0040   -1.8310   23.0950 C   0  0  0  0  0  0  0  0  0  0  0  0
    9.7400   -2.1550   24.2470 O   0  0  0  0  0  0  0  0  0  0  0  0
   11.2290   -1.0560   22.7680 C   0  0  0  0  0  0  0  0  0  0  0  0
   12.2640   -1.8170   22.3770 C   0  0  0  0  0  0  0  0  0  0  0  0
   13.5800   -1.2190   22.0800 C   0  0  0  0  0  0  0  0  0  0  0  0
   14.5260   -1.9160   21.7300 O   0  0  0  0  0  0  0  0  0  0  0  0
   13.6920    0.1340   22.2330 N   0  0  0  0  0  0  0  0  0  0  0  0
   12.6310    0.9650   22.6150 C   0  0  0  0  0  0  0  0  0  0  0  0
   12.8500    2.3430   22.7150 C   0  0  0  0  0  0  0  0  0  0  0  0
   11.8000    3.1870   23.0700 C   0  0  0  0  0  0  0  0  0  0  0  0
   10.5370    2.6530   23.3130 C   0  0  0  0  0  0  0  0  0  0  0  0
   10.3280    1.2770   23.2110 C   0  0  0  0  0  0  0  0  0  0  0  0
    9.0900    0.8190   23.4360 F   0  0  0  0  0  0  0  0  0  0  0  0
   11.3690    0.4050   22.8790 C   0  0  0  0  0  0  0  0  0  0  0  0
    3.2617    1.9843   22.6149 H   0  0  0  0  0  0  0  0  0  0  0  0
    3.9442    2.5770   21.0626 H   0  0  0  0  0  0  0  0  0  0  0  0
    2.7288    1.2543   21.0626 H   0  0  0  0  0  0  0  0  0  0  0  0
    5.3330    1.6325   17.3813 H   0  0  0  0  0  0  0  0  0  0  0  0
    7.3393    0.1998   17.2644 H   0  0  0  0  0  0  0  0  0  0  0  0
    8.0713   -1.0409   19.3228 H   0  0  0  0  0  0  0  0  0  0  0  0
    5.9048   -2.7749   21.8516 H   0  0  0  0  0  0  0  0  0  0  0  0
    6.8517   -2.5633   20.3485 H   0  0  0  0  0  0  0  0  0  0  0  0
    7.8106   -3.1133   23.1783 H   0  0  0  0  0  0  0  0  0  0  0  0
    8.2878   -3.9000   21.6198 H   0  0  0  0  0  0  0  0  0  0  0  0
    9.5570   -1.9030   21.0810 H   0  0  0  0  0  0  0  0  0  0  0  0
   12.1286   -2.9040   22.2764 H   0  0  0  0  0  0  0  0  0  0  0  0
   14.6020    0.5230   22.0230 H   0  0  0  0  0  0  0  0  0  0  0  0
   13.8483    2.7589   22.5139 H   0  0  0  0  0  0  0  0  0  0  0  0
   11.9678    4.2706   23.1580 H   0  0  0  0  0  0  0  0  0  0  0  0
    9.7032    3.3166   23.5857 H   0  0  0  0  0  0  0  0  0  0  0  0
  1  2  1  0
  2  3  1  0
  3  4  2  0
  4  5  1  0
  5  6  2  0
  6  7  1  0
  7  8  2  0
  8  9  1  0
  9 10  1  0
 10 11  1  0
 11 12  1  0
 12 13  1  0
 13 14  2  0
 13 15  1  0
 15 16  2  0
 16 17  1  0
 17 18  2  0
 17 19  1  0
 19 20  1  0
 20 21  2  0
 21 22  1  0
 22 23  2  0
 23 24  1  0
 24 25  1  0
 24 26  2  0
  8  3  1  0
 26 15  1  0
 26 20  1  0
  1 27  1  0
  1 28  1  0
  1 29  1  0
  5 30  1  0
  6 31  1  0
  7 32  1  0
 10 33  1  0
 10 34  1  0
 11 35  1  0
 11 36  1  0
 12 37  1  0
 16 38  1  0
 19 39  1  0
 21 40  1  0
 22 41  1  0
 23 42  1  0
M  END
>  <meeko>  (1) 
{"is_sidechain": [false], "free_energy": -7.002, "intermolecular_energy": -9.458, "internal_energy": -1.033}

$$$$
N3R_modified_N
     RDKit          3D

 42 44  0  0  0  0  0  0  0  0999 V2000
    5.1150    3.4800   20.6140 C   0  0  0  0  0  0  0  0  0  0  0  0
    4.3600    2.3230   20.2650 O   0  0  0  0  0  0  0  0  0  0  0  0
    5.1440    1.3190   19.7160 C   0  0  0  0  0  0  0  0  0  0  0  0
    5.5350    1.4150   18.4250 N   0  0  0  0  0  0  0  0  0  0  0  0
    6.3040    0.4110   17.9480 C   0  0  0  0  0  0  0  0  0  0  0  0
    6.7060   -0.6840   18.6990 C   0  0  0  0  0  0  0  0  0  0  0  0
    6.2860   -0.7660   20.0220 C   0  0  0  0  0  0  0  0  0  0  0  0
    5.4770    0.2410   20.5360 C   0  0  0  0  0  0  0  0  0  0  0  0
    5.0760    0.1760   21.8410 O   0  0  0  0  0  0  0  0  0  0  0  0
    6.1990   -0.0780   22.7020 C   0  0  0  0  0  0  0  0  0  0  0  0
    6.7420    1.2600   23.1990 C   0  0  0  0  0  0  0  0  0  0  0  0
    8.1920    1.2570   23.2370 N   0  0  0  0  0  0  0  0  0  0  0  0
    8.9340    1.6400   22.1500 C   0  0  0  0  0  0  0  0  0  0  0  0
    8.4780    1.8220   21.0270 O   0  0  0  0  0  0  0  0  0  0  0  0
   10.3900    1.7470   22.4220 C   0  0  0  0  0  0  0  0  0  0  0  0
   10.7960    2.9910   22.7270 C   0  0  0  0  0  0  0  0  0  0  0  0
   12.2220    3.2930   22.9580 C   0  0  0  0  0  0  0  0  0  0  0  0
   12.5900    4.4310   23.2290 O   0  0  0  0  0  0  0  0  0  0  0  0
   13.1000    2.2540   22.8380 N   0  0  0  0  0  0  0  0  0  0  0  0
   12.7150    0.9380   22.5480 C   0  0  0  0  0  0  0  0  0  0  0  0
   13.6970   -0.0550   22.4750 C   0  0  0  0  0  0  0  0  0  0  0  0
   13.3300   -1.3730   22.2100 C   0  0  0  0  0  0  0  0  0  0  0  0
   11.9870   -1.6920   22.0300 C   0  0  0  0  0  0  0  0  0  0  0  0
   11.0140   -0.6940   22.1050 C   0  0  0  0  0  0  0  0  0  0  0  0
    9.7360   -1.0590   21.9430 F   0  0  0  0  0  0  0  0  0  0  0  0
   11.3570    0.6400   22.3460 C   0  0  0  0  0  0  0  0  0  0  0  0
    5.1705    3.5650   21.7093 H   0  0  0  0  0  0  0  0  0  0  0  0
    6.1308    3.3933   20.2011 H   0  0  0  0  0  0  0  0  0  0  0  0
    4.6265    4.3749   20.2011 H   0  0  0  0  0  0  0  0  0  0  0  0
    6.6314    0.4655   16.8993 H   0  0  0  0  0  0  0  0  0  0  0  0
    7.3408   -1.4673   18.2591 H   0  0  0  0  0  0  0  0  0  0  0  0
    6.5893   -1.6149   20.6524 H   0  0  0  0  0  0  0  0  0  0  0  0
    5.8789   -0.6895   23.5585 H   0  0  0  0  0  0  0  0  0  0  0  0
    6.9812   -0.6204   22.1506 H   0  0  0  0  0  0  0  0  0  0  0  0
    6.4026    2.0583   22.5226 H   0  0  0  0  0  0  0  0  0  0  0  0
    6.3675    1.4302   24.2192 H   0  0  0  0  0  0  0  0  0  0  0  0
    8.6230    1.2750   24.1570 H   0  0  0  0  0  0  0  0  0  0  0  0
   10.0528    3.7981   22.8059 H   0  0  0  0  0  0  0  0  0  0  0  0
   14.0710    2.4830   23.0030 H   0  0  0  0  0  0  0  0  0  0  0  0
   14.7555    0.2034   22.6262 H   0  0  0  0  0  0  0  0  0  0  0  0
   14.0980   -2.1577   22.1434 H   0  0  0  0  0  0  0  0  0  0  0  0
   11.6920   -2.7323   21.8283 H   0  0  0  0  0  0  0  0  0  0  0  0
  1  2  1  0
  2  3  1  0
  3  4  2  0
  4  5  1  0
  5  6  2  0
  6  7  1  0
  7  8  2  0
  8  9  1  0
  9 10  1  0
 10 11  1  0
 11 12  1  0
 12 13  1  0
 13 14  2  0
 13 15  1  0
 15 16  2  0
 16 17  1  0
 17 18  2  0
 17 19  1  0
 19 20  1  0
 20 21  2  0
 21 22  1  0
 22 23  2  0
 23 24  1  0
 24 25  1  0
 24 26  2  0
  8  3  1  0
 26 15  1  0
 26 20  1  0
  1 27  1  0
  1 28  1  0
  1 29  1  0
  5 30  1  0
  6 31  1  0
  7 32  1  0
 10 33  1  0
 10 34  1  0
 11 35  1  0
 11 36  1  0
 12 37  1  0
 16 38  1  0
 19 39  1  0
 21 40  1  0
 22 41  1  0
 23 42  1  0
M  END
>  <meeko>  (2) 
{"is_sidechain": [false], "free_energy": -6.965, "intermolecular_energy": -9.23, "internal_energy": -1.211}

$$$$
N3R_modified_N
     RDKit          3D

 42 44  0  0  0  0  0  0  0  0999 V2000
    6.1570    0.7710   17.6010 C   0  0  0  0  0  0  0  0  0  0  0  0
    6.3570   -0.2350   18.5890 O   0  0  0  0  0  0  0  0  0  0  0  0
    5.8330    0.1170   19.8240 C   0  0  0  0  0  0  0  0  0  0  0  0
    4.9040    1.0980   19.8940 N   0  0  0  0  0  0  0  0  0  0  0  0
    4.4240    1.3930   21.1220 C   0  0  0  0  0  0  0  0  0  0  0  0
    4.8230    0.7520   22.2860 C   0  0  0  0  0  0  0  0  0  0  0  0
    5.7840   -0.2490   22.1920 C   0  0  0  0  0  0  0  0  0  0  0  0
    6.3130   -0.5610   20.9440 C   0  0  0  0  0  0  0  0  0  0  0  0
    7.2430   -1.5560   20.8420 O   0  0  0  0  0  0  0  0  0  0  0  0
    6.8610   -2.6890   21.6400 C   0  0  0  0  0  0  0  0  0  0  0  0
    8.0710   -3.1370   22.4570 C   0  0  0  0  0  0  0  0  0  0  0  0
    9.1890   -2.2280   22.2840 N   0  0  0  0  0  0  0  0  0  0  0  0
   10.0570   -1.9610   23.3110 C   0  0  0  0  0  0  0  0  0  0  0  0
    9.8730   -2.2890   24.4780 O   0  0  0  0  0  0  0  0  0  0  0  0
   11.2370   -1.1540   22.9070 C   0  0  0  0  0  0  0  0  0  0  0  0
   12.2740   -1.8880   22.4740 C   0  0  0  0  0  0  0  0  0  0  0  0
   13.5530   -1.2550   22.0980 C   0  0  0  0  0  0  0  0  0  0  0  0
   14.5020   -1.9280   21.7100 O   0  0  0  0  0  0  0  0  0  0  0  0
   13.6290    0.1040   22.2230 N   0  0  0  0  0  0  0  0  0  0  0  0
   12.5620    0.9080   22.6470 C   0  0  0  0  0  0  0  0  0  0  0  0
   12.7420    2.2930   22.7130 C   0  0  0  0  0  0  0  0  0  0  0  0
   11.6850    3.1100   23.1100 C   0  0  0  0  0  0  0  0  0  0  0  0
   10.4540    2.5400   23.4280 C   0  0  0  0  0  0  0  0  0  0  0  0
   10.2850    1.1570   23.3590 C   0  0  0  0  0  0  0  0  0  0  0  0
    9.0760    0.6640   23.6570 F   0  0  0  0  0  0  0  0  0  0  0  0
   11.3350    0.3120   22.9870 C   0  0  0  0  0  0  0  0  0  0  0  0
    5.9652    1.7357   18.0936 H   0  0  0  0  0  0  0  0  0  0  0  0
    7.0566    0.8523   16.9732 H   0  0  0  0  0  0  0  0  0  0  0  0
    5.2947    0.5020   16.9732 H   0  0  0  0  0  0  0  0  0  0  0  0
    3.6706    2.1903   21.2040 H   0  0  0  0  0  0  0  0  0  0  0  0
    4.3902    1.0285   23.2587 H   0  0  0  0  0  0  0  0  0  0  0  0
    6.1207   -0.7859   23.0911 H   0  0  0  0  0  0  0  0  0  0  0  0
    6.0407   -2.4067   22.3163 H   0  0  0  0  0  0  0  0  0  0  0  0
    6.5202   -3.5091   20.9910 H   0  0  0  0  0  0  0  0  0  0  0  0
    7.7941   -3.1662   23.5212 H   0  0  0  0  0  0  0  0  0  0  0  0
    8.3765   -4.1342   22.1073 H   0  0  0  0  0  0  0  0  0  0  0  0
    9.4880   -2.0530   21.3280 H   0  0  0  0  0  0  0  0  0  0  0  0
   12.1687   -2.9803   22.3981 H   0  0  0  0  0  0  0  0  0  0  0  0
   14.5130    0.5180   21.9600 H   0  0  0  0  0  0  0  0  0  0  0  0
   13.7145    2.7362   22.4525 H   0  0  0  0  0  0  0  0  0  0  0  0
   11.8219    4.1997   23.1720 H   0  0  0  0  0  0  0  0  0  0  0  0
    9.6143    3.1814   23.7339 H   0  0  0  0  0  0  0  0  0  0  0  0
  1  2  1  0
  2  3  1  0
  3  4  2  0
  4  5  1  0
  5  6  2  0
  6  7  1  0
  7  8  2  0
  8  9  1  0
  9 10  1  0
 10 11  1  0
 11 12  1  0
 12 13  1  0
 13 14  2  0
 13 15  1  0
 15 16  2  0
 16 17  1  0
 17 18  2  0
 17 19  1  0
 19 20  1  0
 20 21  2  0
 21 22  1  0
 22 23  2  0
 23 24  1  0
 24 25  1  0
 24 26  2  0
  8  3  1  0
 26 15  1  0
 26 20  1  0
  1 27  1  0
  1 28  1  0
  1 29  1  0
  5 30  1  0
  6 31  1  0
  7 32  1  0
 10 33  1  0
 10 34  1  0
 11 35  1  0
 11 36  1  0
 12 37  1  0
 16 38  1  0
 19 39  1  0
 21 40  1  0
 22 41  1  0
 23 42  1  0
M  END
>  <meeko>  (3) 
{"is_sidechain": [false], "free_energy": -6.952, "intermolecular_energy": -9.391, "internal_energy": -1.033}

$$$$
N3R_modified_N
     RDKit          3D

 42 44  0  0  0  0  0  0  0  0999 V2000
    9.9710   -2.5740   23.4670 C   0  0  0  0  0  0  0  0  0  0  0  0
   10.2440   -1.2000   23.2060 O   0  0  0  0  0  0  0  0  0  0  0  0
   11.5730   -0.9730   22.8810 C   0  0  0  0  0  0  0  0  0  0  0  0
   12.2620   -1.9220   22.2060 N   0  0  0  0  0  0  0  0  0  0  0  0
   13.5510   -1.6410   21.9100 C   0  0  0  0  0  0  0  0  0  0  0  0
   14.1850   -0.4550   22.2510 C   0  0  0  0  0  0  0  0  0  0  0  0
   13.4610    0.5030   22.9510 C   0  0  0  0  0  0  0  0  0  0  0  0
   12.1380    0.2360   23.2890 C   0  0  0  0  0  0  0  0  0  0  0  0
   11.4150    1.1800   23.9590 O   0  0  0  0  0  0  0  0  0  0  0  0
   11.3700    2.4080   23.2120 C   0  0  0  0  0  0  0  0  0  0  0  0
   10.1110    3.1730   23.6110 C   0  0  0  0  0  0  0  0  0  0  0  0
    9.0950    3.0910   22.5780 N   0  0  0  0  0  0  0  0  0  0  0  0
    8.0410    2.2210   22.6840 C   0  0  0  0  0  0  0  0  0  0  0  0
    7.9580    1.3280   23.5190 O   0  0  0  0  0  0  0  0  0  0  0  0
    7.0090    2.3960   21.6300 C   0  0  0  0  0  0  0  0  0  0  0  0
    6.1140    3.3600   21.9010 C   0  0  0  0  0  0  0  0  0  0  0  0
    4.9780    3.6230   20.9960 C   0  0  0  0  0  0  0  0  0  0  0  0
    4.1580    4.4990   21.2500 O   0  0  0  0  0  0  0  0  0  0  0  0
    4.8800    2.8350   19.8840 N   0  0  0  0  0  0  0  0  0  0  0  0
    5.8060    1.8370   19.5530 C   0  0  0  0  0  0  0  0  0  0  0  0
    5.6220    1.1070   18.3750 C   0  0  0  0  0  0  0  0  0  0  0  0
    6.5450    0.1260   18.0170 C   0  0  0  0  0  0  0  0  0  0  0  0
    7.6500   -0.1120   18.8310 C   0  0  0  0  0  0  0  0  0  0  0  0
    7.8240    0.6230   20.0050 C   0  0  0  0  0  0  0  0  0  0  0  0
    8.9130    0.3660   20.7420 F   0  0  0  0  0  0  0  0  0  0  0  0
    6.9000    1.5950   20.4000 C   0  0  0  0  0  0  0  0  0  0  0  0
    9.9378   -2.7412   24.5537 H   0  0  0  0  0  0  0  0  0  0  0  0
    9.0013   -2.8457   23.0244 H   0  0  0  0  0  0  0  0  0  0  0  0
   10.7632   -3.1957   23.0244 H   0  0  0  0  0  0  0  0  0  0  0  0
   14.1327   -2.3993   21.3654 H   0  0  0  0  0  0  0  0  0  0  0  0
   15.2347   -0.2772   21.9742 H   0  0  0  0  0  0  0  0  0  0  0  0
   13.9272    1.4584   23.2337 H   0  0  0  0  0  0  0  0  0  0  0  0
   12.2597    3.0135   23.4398 H   0  0  0  0  0  0  0  0  0  0  0  0
   11.3534    2.1922   22.1335 H   0  0  0  0  0  0  0  0  0  0  0  0
    9.7111    2.7444   24.5418 H   0  0  0  0  0  0  0  0  0  0  0  0
   10.3776    4.2307   23.7528 H   0  0  0  0  0  0  0  0  0  0  0  0
    9.0130    3.8900   21.9570 H   0  0  0  0  0  0  0  0  0  0  0  0
    6.2295    3.9639   22.8131 H   0  0  0  0  0  0  0  0  0  0  0  0
    4.0960    3.0330   19.2770 H   0  0  0  0  0  0  0  0  0  0  0  0
    4.7515    1.3062   17.7327 H   0  0  0  0  0  0  0  0  0  0  0  0
    6.4015   -0.4577   17.0957 H   0  0  0  0  0  0  0  0  0  0  0  0
    8.3858   -0.8794   18.5486 H   0  0  0  0  0  0  0  0  0  0  0  0
  1  2  1  0
  2  3  1  0
  3  4  2  0
  4  5  1  0
  5  6  2  0
  6  7  1  0
  7  8  2  0
  8  9  1  0
  9 10  1  0
 10 11  1  0
 11 12  1  0
 12 13  1  0
 13 14  2  0
 13 15  1  0
 15 16  2  0
 16 17  1  0
 17 18  2  0
 17 19  1  0
 19 20  1  0
 20 21  2  0
 21 22  1  0
 22 23  2  0
 23 24  1  0
 24 25  1  0
 24 26  2  0
  8  3  1  0
 26 15  1  0
 26 20  1  0
  1 27  1  0
  1 28  1  0
  1 29  1  0
  5 30  1  0
  6 31  1  0
  7 32  1  0
 10 33  1  0
 10 34  1  0
 11 35  1  0
 11 36  1  0
 12 37  1  0
 16 38  1  0
 19 39  1  0
 21 40  1  0
 22 41  1  0
 23 42  1  0
M  END
>  <meeko>  (4) 
{"is_sidechain": [false], "free_energy": -6.849, "intermolecular_energy": -9.224, "internal_energy": -1.06}

$$$$
N3R_modified_N
     RDKit          3D

 42 44  0  0  0  0  0  0  0  0999 V2000
    7.5710   -1.5260   21.6230 C   0  0  0  0  0  0  0  0  0  0  0  0
    7.8290   -0.1600   21.3130 O   0  0  0  0  0  0  0  0  0  0  0  0
    7.1750    0.2600   20.1640 C   0  0  0  0  0  0  0  0  0  0  0  0
    7.6330   -0.1450   18.9570 N   0  0  0  0  0  0  0  0  0  0  0  0
    6.9520    0.2890   17.8730 C   0  0  0  0  0  0  0  0  0  0  0  0
    5.8310    1.1050   17.9360 C   0  0  0  0  0  0  0  0  0  0  0  0
    5.3820    1.5140   19.1870 C   0  0  0  0  0  0  0  0  0  0  0  0
    6.0740    1.1010   20.3200 C   0  0  0  0  0  0  0  0  0  0  0  0
    5.6270    1.4840   21.5520 O   0  0  0  0  0  0  0  0  0  0  0  0
    6.0810    2.8120   21.8650 C   0  0  0  0  0  0  0  0  0  0  0  0
    6.8910    2.7560   23.1590 C   0  0  0  0  0  0  0  0  0  0  0  0
    8.3120    2.6540   22.8860 N   0  0  0  0  0  0  0  0  0  0  0  0
    9.2320    2.6160   23.9020 C   0  0  0  0  0  0  0  0  0  0  0  0
    8.9780    2.8540   25.0780 O   0  0  0  0  0  0  0  0  0  0  0  0
   10.6170    2.3320   23.4490 C   0  0  0  0  0  0  0  0  0  0  0  0
   11.3500    3.4340   23.2190 C   0  0  0  0  0  0  0  0  0  0  0  0
   12.7270    3.3380   22.6960 C   0  0  0  0  0  0  0  0  0  0  0  0
   13.3920    4.3450   22.4800 O   0  0  0  0  0  0  0  0  0  0  0  0
   13.2080    2.0830   22.4510 N   0  0  0  0  0  0  0  0  0  0  0  0
   12.4860    0.9090   22.7010 C   0  0  0  0  0  0  0  0  0  0  0  0
   13.0860   -0.3260   22.4380 C   0  0  0  0  0  0  0  0  0  0  0  0
   12.3910   -1.5040   22.7020 C   0  0  0  0  0  0  0  0  0  0  0  0
   11.1070   -1.4430   23.2370 C   0  0  0  0  0  0  0  0  0  0  0  0
   10.5160   -0.2050   23.4960 C   0  0  0  0  0  0  0  0  0  0  0  0
    9.2860   -0.2040   24.0280 F   0  0  0  0  0  0  0  0  0  0  0  0
   11.1820    0.9920   23.2180 C   0  0  0  0  0  0  0  0  0  0  0  0
    7.5465   -1.6559   22.7150 H   0  0  0  0  0  0  0  0  0  0  0  0
    6.6011   -1.8219   21.1967 H   0  0  0  0  0  0  0  0  0  0  0  0
    8.3662   -2.1553   21.1967 H   0  0  0  0  0  0  0  0  0  0  0  0
    7.3080   -0.0236   16.8803 H   0  0  0  0  0  0  0  0  0  0  0  0
    5.3108    1.4202   17.0195 H   0  0  0  0  0  0  0  0  0  0  0  0
    4.4926    2.1547   19.2788 H   0  0  0  0  0  0  0  0  0  0  0  0
    6.7130    3.1901   21.0479 H   0  0  0  0  0  0  0  0  0  0  0  0
    5.2197    3.4849   21.9888 H   0  0  0  0  0  0  0  0  0  0  0  0
    6.7023    3.6708   23.7400 H   0  0  0  0  0  0  0  0  0  0  0  0
    6.5809    1.8653   23.7250 H   0  0  0  0  0  0  0  0  0  0  0  0
    8.5750    2.2990   21.9710 H   0  0  0  0  0  0  0  0  0  0  0  0
   10.9169    4.4242   23.4238 H   0  0  0  0  0  0  0  0  0  0  0  0
   14.1540    2.0400   22.0950 H   0  0  0  0  0  0  0  0  0  0  0  0
   14.1042   -0.3674   22.0237 H   0  0  0  0  0  0  0  0  0  0  0  0
   12.8547   -2.4784   22.4887 H   0  0  0  0  0  0  0  0  0  0  0  0
   10.5580   -2.3708   23.4557 H   0  0  0  0  0  0  0  0  0  0  0  0
  1  2  1  0
  2  3  1  0
  3  4  2  0
  4  5  1  0
  5  6  2  0
  6  7  1  0
  7  8  2  0
  8  9  1  0
  9 10  1  0
 10 11  1  0
 11 12  1  0
 12 13  1  0
 13 14  2  0
 13 15  1  0
 15 16  2  0
 16 17  1  0
 17 18  2  0
 17 19  1  0
 19 20  1  0
 20 21  2  0
 21 22  1  0
 22 23  2  0
 23 24  1  0
 24 25  1  0
 24 26  2  0
  8  3  1  0
 26 15  1  0
 26 20  1  0
  1 27  1  0
  1 28  1  0
  1 29  1  0
  5 30  1  0
  6 31  1  0
  7 32  1  0
 10 33  1  0
 10 34  1  0
 11 35  1  0
 11 36  1  0
 12 37  1  0
 16 38  1  0
 19 39  1  0
 21 40  1  0
 22 41  1  0
 23 42  1  0
M  END
>  <meeko>  (5) 
{"is_sidechain": [false], "free_energy": -6.713, "intermolecular_energy": -8.725, "internal_energy": -1.375}

$$$$
