MODEL 1
REMARK VINA RESULT:    -7.160      0.000      0.000
REMARK INTER + INTRA:         -10.838
REMARK INTER:                  -9.881
REMARK INTRA:                  -0.958
REMARK UNBOUND:                -0.958
REMARK SMILES COc1ccccc1OCCNC(=O)c1cc(=O)[nH]c2cc(O)cc(F)c12
REMARK SMILES IDX 11 1 12 2 13 3 14 4 15 6 19 7 20 8 17 9 21 10 27 11 16 12
REMARK SMILES IDX 22 13 25 14 24 15 18 17 26 18 23 19 10 21 9 22 8 23 7 24
REMARK SMILES IDX 3 25 6 26 4 27 5 28 2 29 1 30
REMARK H PARENT 12 5 19 16 23 20
ROOT
ATOM      1  C   UNL     1       7.891  -2.763  22.281  1.00  0.00     0.157 C 
ENDROOT
BRANCH   1   2
ATOM      2  N   UNL     1       9.061  -1.911  22.187  1.00  0.00    -0.349 N 
ATOM      3  C   UNL     1       9.949  -1.792  23.222  1.00  0.00     0.252 C 
ATOM      4  O   UNL     1       9.757  -2.190  24.364  1.00  0.00    -0.269 OA
ATOM      5  H   UNL     1       9.356  -1.657  21.244  1.00  0.00     0.163 HD
BRANCH   3   6
ATOM      6  C   UNL     1      11.188  -1.070  22.848  1.00  0.00     0.057 A 
ATOM      7  N   UNL     1      13.649   0.064  22.212  1.00  0.00    -0.322 N 
ATOM      8  C   UNL     1      12.616   0.922  22.613  1.00  0.00     0.056 A 
ATOM      9  C   UNL     1      13.511  -1.291  22.095  1.00  0.00     0.249 A 
ATOM     10  C   UNL     1      12.860   2.295  22.682  1.00  0.00     0.073 A 
ATOM     11  C   UNL     1      11.359   0.389  22.936  1.00  0.00     0.047 A 
ATOM     12  C   UNL     1      12.193  -1.860  22.441  1.00  0.00     0.086 A 
ATOM     13  C   UNL     1      11.833   3.150  23.066  1.00  0.00     0.120 A 
ATOM     14  C   UNL     1      10.346   1.279  23.308  1.00  0.00     0.137 A 
ATOM     15  C   UNL     1      10.574   2.654  23.378  1.00  0.00     0.086 A 
ATOM     16  H   UNL     1      14.557   0.435  21.964  1.00  0.00     0.170 HD
ATOM     17  O   UNL     1      14.438  -2.011  21.743  1.00  0.00    -0.270 OA
ATOM     18  F   UNL     1       9.117   0.839  23.604  1.00  0.00    -0.206 F 
BRANCH  13  19
ATOM     19  O   UNL     1      12.107   4.484  23.119  1.00  0.00    -0.508 OA
ATOM     20  H   UNL     1      12.548   4.753  22.296  1.00  0.00     0.293 HD
ENDBRANCH  13  19
ENDBRANCH   3   6
ENDBRANCH   1   2
BRANCH   1  21
ATOM     21  C   UNL     1       6.796  -2.295  21.325  1.00  0.00     0.251 C 
BRANCH  21  22
ATOM     22  O   UNL     1       6.549  -0.900  21.576  1.00  0.00    -0.488 OA
BRANCH  22  23
ATOM     23  C   UNL     1       6.348  -0.228  20.397  1.00  0.00     0.161 A 
ATOM     24  C   UNL     1       7.239  -0.447  19.345  1.00  0.00     0.050 A 
ATOM     25  C   UNL     1       5.303   0.703  20.287  1.00  0.00     0.160 A 
ATOM     26  C   UNL     1       7.070   0.238  18.145  1.00  0.00     0.004 A 
ATOM     27  C   UNL     1       5.143   1.383  19.076  1.00  0.00     0.050 A 
ATOM     28  C   UNL     1       6.022   1.148  18.011  1.00  0.00     0.004 A 
BRANCH  25  29
ATOM     29  O   UNL     1       4.497   0.853  21.388  1.00  0.00    -0.493 OA
ATOM     30  C   UNL     1       3.501   1.869  21.313  1.00  0.00     0.278 C 
ENDBRANCH  25  29
ENDBRANCH  22  23
ENDBRANCH  21  22
ENDBRANCH   1  21
TORSDOF 7
ENDMDL
MODEL 2
REMARK VINA RESULT:    -7.104      1.811      3.455
REMARK INTER + INTRA:         -10.761
REMARK INTER:                  -9.553
REMARK INTRA:                  -1.208
REMARK UNBOUND:                -0.958
REMARK SMILES COc1ccccc1OCCNC(=O)c1cc(=O)[nH]c2cc(O)cc(F)c12
REMARK SMILES IDX 11 1 12 2 13 3 14 4 15 6 19 7 20 8 17 9 21 10 27 11 16 12
REMARK SMILES IDX 22 13 25 14 24 15 18 17 26 18 23 19 10 21 9 22 8 23 7 24
REMARK SMILES IDX 3 25 6 26 4 27 5 28 2 29 1 30
REMARK H PARENT 12 5 19 16 23 20
ROOT
ATOM      1  C   UNL     1       6.829   1.105  23.290  1.00  0.00     0.157 C 
ENDROOT
BRANCH   1   2
ATOM      2  N   UNL     1       8.278   1.152  23.278  1.00  0.00    -0.349 N 
ATOM      3  C   UNL     1       8.975   1.605  22.189  1.00  0.00     0.252 C 
ATOM      4  O   UNL     1       8.496   1.802  21.080  1.00  0.00    -0.269 OA
ATOM      5  H   UNL     1       8.735   1.132  24.190  1.00  0.00     0.163 HD
BRANCH   3   6
ATOM      6  C   UNL     1      10.419   1.796  22.459  1.00  0.00     0.057 A 
ATOM      7  N   UNL     1      13.098   2.412  22.895  1.00  0.00    -0.322 N 
ATOM      8  C   UNL     1      12.777   1.093  22.548  1.00  0.00     0.056 A 
ATOM      9  C   UNL     1      12.172   3.406  23.050  1.00  0.00     0.249 A 
ATOM     10  C   UNL     1      13.801   0.151  22.433  1.00  0.00     0.073 A 
ATOM     11  C   UNL     1      11.436   0.742  22.327  1.00  0.00     0.047 A 
ATOM     12  C   UNL     1      10.761   3.045  22.811  1.00  0.00     0.086 A 
ATOM     13  C   UNL     1      13.483  -1.162  22.103  1.00  0.00     0.120 A 
ATOM     14  C   UNL     1      11.153  -0.590  22.008  1.00  0.00     0.137 A 
ATOM     15  C   UNL     1      12.165  -1.543  21.891  1.00  0.00     0.086 A 
ATOM     16  H   UNL     1      14.059   2.677  23.069  1.00  0.00     0.170 HD
ATOM     17  O   UNL     1      12.491   4.549  23.352  1.00  0.00    -0.270 OA
ATOM     18  F   UNL     1       9.892  -0.997  21.809  1.00  0.00    -0.206 F 
BRANCH  13  19
ATOM     19  O   UNL     1      14.508  -2.055  22.002  1.00  0.00    -0.508 OA
ATOM     20  H   UNL     1      14.713  -2.409  22.883  1.00  0.00     0.293 HD
ENDBRANCH  13  19
ENDBRANCH   3   6
ENDBRANCH   1   2
BRANCH   1  21
ATOM     21  C   UNL     1       6.320  -0.229  22.748  1.00  0.00     0.251 C 
BRANCH  21  22
ATOM     22  O   UNL     1       5.160   0.031  21.938  1.00  0.00    -0.488 OA
BRANCH  22  23
ATOM     23  C   UNL     1       5.515   0.159  20.618  1.00  0.00     0.161 A 
ATOM     24  C   UNL     1       6.281  -0.852  20.033  1.00  0.00     0.050 A 
ATOM     25  C   UNL     1       5.163   1.314  19.903  1.00  0.00     0.160 A 
ATOM     26  C   UNL     1       6.672  -0.736  18.702  1.00  0.00     0.004 A 
ATOM     27  C   UNL     1       5.561   1.417  18.567  1.00  0.00     0.050 A 
ATOM     28  C   UNL     1       6.309   0.394  17.971  1.00  0.00     0.004 A 
BRANCH  25  29
ATOM     29  O   UNL     1       4.424   2.252  20.581  1.00  0.00    -0.493 OA
ATOM     30  C   UNL     1       5.046   3.516  20.797  1.00  0.00     0.278 C 
ENDBRANCH  25  29
ENDBRANCH  22  23
ENDBRANCH  21  22
ENDBRANCH   1  21
TORSDOF 7
ENDMDL
MODEL 3
REMARK VINA RESULT:    -7.061      1.265      2.135
REMARK INTER + INTRA:         -10.701
REMARK INTER:                  -8.918
REMARK INTRA:                  -1.784
REMARK UNBOUND:                -0.958
REMARK SMILES COc1ccccc1OCCNC(=O)c1cc(=O)[nH]c2cc(O)cc(F)c12
REMARK SMILES IDX 11 1 12 2 13 3 14 4 15 6 19 7 20 8 17 9 21 10 27 11 16 12
REMARK SMILES IDX 22 13 25 14 24 15 18 17 26 18 23 19 10 21 9 22 8 23 7 24
REMARK SMILES IDX 3 25 6 26 4 27 5 28 2 29 1 30
REMARK H PARENT 12 5 19 16 23 20
ROOT
ATOM      1  C   UNL     1       8.166  -2.979  22.209  1.00  0.00     0.157 C 
ENDROOT
BRANCH   1   2
ATOM      2  N   UNL     1       9.307  -2.088  22.119  1.00  0.00    -0.349 N 
ATOM      3  C   UNL     1      10.152  -1.893  23.179  1.00  0.00     0.252 C 
ATOM      4  O   UNL     1       9.934  -2.251  24.329  1.00  0.00    -0.269 OA
ATOM      5  H   UNL     1       9.626  -1.862  21.178  1.00  0.00     0.163 HD
BRANCH   3   6
ATOM      6  C   UNL     1      11.376  -1.140  22.817  1.00  0.00     0.057 A 
ATOM      7  N   UNL     1      13.814   0.054  22.202  1.00  0.00    -0.322 N 
ATOM      8  C   UNL     1      12.763   0.884  22.613  1.00  0.00     0.056 A 
ATOM      9  C   UNL     1      13.705  -1.302  22.067  1.00  0.00     0.249 A 
ATOM     10  C   UNL     1      12.978   2.261  22.700  1.00  0.00     0.073 A 
ATOM     11  C   UNL     1      11.517   0.320  22.925  1.00  0.00     0.047 A 
ATOM     12  C   UNL     1      12.399  -1.903  22.402  1.00  0.00     0.086 A 
ATOM     13  C   UNL     1      11.933   3.089  23.095  1.00  0.00     0.120 A 
ATOM     14  C   UNL     1      10.485   1.185  23.307  1.00  0.00     0.137 A 
ATOM     15  C   UNL     1      10.684   2.562  23.397  1.00  0.00     0.086 A 
ATOM     16  H   UNL     1      14.715   0.447  21.961  1.00  0.00     0.170 HD
ATOM     17  O   UNL     1      14.647  -1.998  21.706  1.00  0.00    -0.270 OA
ATOM     18  F   UNL     1       9.264   0.715  23.595  1.00  0.00    -0.206 F 
BRANCH  13  19
ATOM     19  O   UNL     1      12.178   4.428  23.166  1.00  0.00    -0.508 OA
ATOM     20  H   UNL     1      11.364   4.915  22.958  1.00  0.00     0.293 HD
ENDBRANCH  13  19
ENDBRANCH   3   6
ENDBRANCH   1   2
BRANCH   1  21
ATOM     21  C   UNL     1       6.899  -2.211  22.578  1.00  0.00     0.251 C 
BRANCH  21  22
ATOM     22  O   UNL     1       6.472  -1.472  21.420  1.00  0.00    -0.488 OA
BRANCH  22  23
ATOM     23  C   UNL     1       6.646  -0.126  21.618  1.00  0.00     0.161 A 
ATOM     24  C   UNL     1       5.911   0.500  22.628  1.00  0.00     0.050 A 
ATOM     25  C   UNL     1       7.498   0.605  20.775  1.00  0.00     0.160 A 
ATOM     26  C   UNL     1       6.053   1.869  22.834  1.00  0.00     0.004 A 
ATOM     27  C   UNL     1       7.633   1.979  20.995  1.00  0.00     0.050 A 
ATOM     28  C   UNL     1       6.915   2.605  22.022  1.00  0.00     0.004 A 
BRANCH  25  29
ATOM     29  O   UNL     1       8.158  -0.106  19.804  1.00  0.00    -0.493 OA
ATOM     30  C   UNL     1       7.626  -0.025  18.485  1.00  0.00     0.278 C 
ENDBRANCH  25  29
ENDBRANCH  22  23
ENDBRANCH  21  22
ENDBRANCH   1  21
TORSDOF 7
ENDMDL
MODEL 4
REMARK VINA RESULT:    -6.933      2.506      3.800
REMARK INTER + INTRA:         -10.525
REMARK INTER:                  -9.139
REMARK INTRA:                  -1.386
REMARK UNBOUND:                -0.958
REMARK SMILES COc1ccccc1OCCNC(=O)c1cc(=O)[nH]c2cc(O)cc(F)c12
REMARK SMILES IDX 11 1 12 2 13 3 14 4 15 6 19 7 20 8 17 9 21 10 27 11 16 12
REMARK SMILES IDX 22 13 25 14 24 15 18 17 26 18 23 19 10 21 9 22 8 23 7 24
REMARK SMILES IDX 3 25 6 26 4 27 5 28 2 29 1 30
REMARK H PARENT 12 5 19 16 23 20
ROOT
ATOM      1  C   UNL     1       8.661  -0.919  22.804  1.00  0.00     0.157 C 
ENDROOT
BRANCH   1   2
ATOM      2  N   UNL     1       8.865   0.483  23.114  1.00  0.00    -0.349 N 
ATOM      3  C   UNL     1       9.758   0.886  24.071  1.00  0.00     0.252 C 
ATOM      4  O   UNL     1      10.295   0.149  24.888  1.00  0.00    -0.269 OA
ATOM      5  H   UNL     1       8.562   1.148  22.402  1.00  0.00     0.163 HD
BRANCH   3   6
ATOM      6  C   UNL     1       9.991   2.350  24.072  1.00  0.00     0.057 A 
ATOM      7  N   UNL     1      10.163   5.128  24.101  1.00  0.00    -0.322 N 
ATOM      8  C   UNL     1      11.154   4.417  23.411  1.00  0.00     0.056 A 
ATOM      9  C   UNL     1       9.132   4.536  24.776  1.00  0.00     0.249 A 
ATOM     10  C   UNL     1      12.174   5.121  22.769  1.00  0.00     0.073 A 
ATOM     11  C   UNL     1      11.105   3.015  23.379  1.00  0.00     0.047 A 
ATOM     12  C   UNL     1       9.070   3.061  24.740  1.00  0.00     0.086 A 
ATOM     13  C   UNL     1      13.166   4.418  22.095  1.00  0.00     0.120 A 
ATOM     14  C   UNL     1      12.126   2.340  22.701  1.00  0.00     0.137 A 
ATOM     15  C   UNL     1      13.154   3.030  22.057  1.00  0.00     0.086 A 
ATOM     16  H   UNL     1      10.192   6.138  24.143  1.00  0.00     0.170 HD
ATOM     17  O   UNL     1       8.282   5.190  25.368  1.00  0.00    -0.270 OA
ATOM     18  F   UNL     1      12.153   1.002  22.653  1.00  0.00    -0.206 F 
BRANCH  13  19
ATOM     19  O   UNL     1      14.148   5.139  21.483  1.00  0.00    -0.508 OA
ATOM     20  H   UNL     1      13.748   5.733  20.827  1.00  0.00     0.293 HD
ENDBRANCH  13  19
ENDBRANCH   3   6
ENDBRANCH   1   2
BRANCH   1  21
ATOM     21  C   UNL     1       8.411  -1.119  21.312  1.00  0.00     0.251 C 
BRANCH  21  22
ATOM     22  O   UNL     1       8.681   0.126  20.642  1.00  0.00    -0.488 OA
BRANCH  22  23
ATOM     23  C   UNL     1       7.603   0.508  19.885  1.00  0.00     0.161 A 
ATOM     24  C   UNL     1       7.423  -0.088  18.634  1.00  0.00     0.050 A 
ATOM     25  C   UNL     1       6.744   1.521  20.341  1.00  0.00     0.160 A 
ATOM     26  C   UNL     1       6.349   0.298  17.837  1.00  0.00     0.004 A 
ATOM     27  C   UNL     1       5.669   1.896  19.531  1.00  0.00     0.050 A 
ATOM     28  C   UNL     1       5.473   1.285  18.286  1.00  0.00     0.004 A 
BRANCH  25  29
ATOM     29  O   UNL     1       7.024   2.049  21.576  1.00  0.00    -0.493 OA
ATOM     30  C   UNL     1       7.029   3.471  21.673  1.00  0.00     0.278 C 
ENDBRANCH  25  29
ENDBRANCH  22  23
ENDBRANCH  21  22
ENDBRANCH   1  21
TORSDOF 7
ENDMDL
MODEL 5
REMARK VINA RESULT:    -6.835      2.046      4.191
REMARK INTER + INTRA:         -10.389
REMARK INTER:                  -9.188
REMARK INTRA:                  -1.202
REMARK UNBOUND:                -0.958
REMARK SMILES COc1ccccc1OCCNC(=O)c1cc(=O)[nH]c2cc(O)cc(F)c12
REMARK SMILES IDX 11 1 12 2 13 3 14 4 15 6 19 7 20 8 17 9 21 10 27 11 16 12
REMARK SMILES IDX 22 13 25 14 24 15 18 17 26 18 23 19 10 21 9 22 8 23 7 24
REMARK SMILES IDX 3 25 6 26 4 27 5 28 2 29 1 30
REMARK H PARENT 12 5 19 16 23 20
ROOT
ATOM      1  C   UNL     1       6.926   3.648  23.174  1.00  0.00     0.157 C 
ENDROOT
BRANCH   1   2
ATOM      2  N   UNL     1       8.353   3.581  22.923  1.00  0.00    -0.349 N 
ATOM      3  C   UNL     1       9.262   3.516  23.946  1.00  0.00     0.252 C 
ATOM      4  O   UNL     1       9.008   3.721  25.126  1.00  0.00    -0.269 OA
ATOM      5  H   UNL     1       8.630   3.278  21.989  1.00  0.00     0.163 HD
BRANCH   3   6
ATOM      6  C   UNL     1      10.638   3.218  23.485  1.00  0.00     0.057 A 
ATOM      7  N   UNL     1      13.218   2.895  22.493  1.00  0.00    -0.322 N 
ATOM      8  C   UNL     1      12.471   1.741  22.764  1.00  0.00     0.056 A 
ATOM      9  C   UNL     1      12.761   4.166  22.706  1.00  0.00     0.249 A 
ATOM     10  C   UNL     1      13.041   0.489  22.525  1.00  0.00     0.073 A 
ATOM     11  C   UNL     1      11.168   1.863  23.272  1.00  0.00     0.047 A 
ATOM     12  C   UNL     1      11.389   4.301  23.233  1.00  0.00     0.086 A 
ATOM     13  C   UNL     1      12.307  -0.658  22.806  1.00  0.00     0.120 A 
ATOM     14  C   UNL     1      10.463   0.688  23.554  1.00  0.00     0.137 A 
ATOM     15  C   UNL     1      11.020  -0.570  23.323  1.00  0.00     0.086 A 
ATOM     16  H   UNL     1      14.163   2.822  22.138  1.00  0.00     0.170 HD
ATOM     17  O   UNL     1      13.443   5.152  22.455  1.00  0.00    -0.270 OA
ATOM     18  F   UNL     1       9.225   0.733  24.063  1.00  0.00    -0.206 F 
BRANCH  13  19
ATOM     19  O   UNL     1      12.896  -1.863  22.563  1.00  0.00    -0.508 OA
ATOM     20  H   UNL     1      12.870  -2.046  21.609  1.00  0.00     0.293 HD
ENDBRANCH  13  19
ENDBRANCH   3   6
ENDBRANCH   1   2
BRANCH   1  21
ATOM     21  C   UNL     1       6.168   2.666  22.284  1.00  0.00     0.251 C 
BRANCH  21  22
ATOM     22  O   UNL     1       7.089   1.646  21.857  1.00  0.00    -0.488 OA
BRANCH  22  23
ATOM     23  C   UNL     1       6.805   1.249  20.575  1.00  0.00     0.161 A 
ATOM     24  C   UNL     1       5.772   1.894  19.891  1.00  0.00     0.050 A 
ATOM     25  C   UNL     1       7.502   0.175  19.999  1.00  0.00     0.160 A 
ATOM     26  C   UNL     1       5.450   1.496  18.596  1.00  0.00     0.004 A 
ATOM     27  C   UNL     1       7.170  -0.213  18.699  1.00  0.00     0.050 A 
ATOM     28  C   UNL     1       6.150   0.447  18.001  1.00  0.00     0.004 A 
BRANCH  25  29
ATOM     29  O   UNL     1       8.486  -0.397  20.767  1.00  0.00    -0.493 OA
ATOM     30  C   UNL     1       8.128  -1.579  21.479  1.00  0.00     0.278 C 
ENDBRANCH  25  29
ENDBRANCH  22  23
ENDBRANCH  21  22
ENDBRANCH   1  21
TORSDOF 7
ENDMDL
