N3R_modified_OH
     RDKit          3D

 44 46  0  0  0  0  0  0  0  0999 V2000
    3.5010    1.8690   21.3130 C   0  0  0  0  0  0  0  0  0  0  0  0
    4.4970    0.8530   21.3880 O   0  0  0  0  0  0  0  0  0  0  0  0
    5.3030    0.7030   20.2870 C   0  0  0  0  0  0  0  0  0  0  0  0
    5.1430    1.3830   19.0760 C   0  0  0  0  0  0  0  0  0  0  0  0
    6.0220    1.1480   18.0110 C   0  0  0  0  0  0  0  0  0  0  0  0
    7.0700    0.2380   18.1450 C   0  0  0  0  0  0  0  0  0  0  0  0
    7.2390   -0.4470   19.3450 C   0  0  0  0  0  0  0  0  0  0  0  0
    6.3480   -0.2280   20.3970 C   0  0  0  0  0  0  0  0  0  0  0  0
    6.5490   -0.9000   21.5760 O   0  0  0  0  0  0  0  0  0  0  0  0
    6.7960   -2.2950   21.3250 C   0  0  0  0  0  0  0  0  0  0  0  0
    7.8910   -2.7630   22.2810 C   0  0  0  0  0  0  0  0  0  0  0  0
    9.0610   -1.9110   22.1870 N   0  0  0  0  0  0  0  0  0  0  0  0
    9.9490   -1.7920   23.2220 C   0  0  0  0  0  0  0  0  0  0  0  0
    9.7570   -2.1900   24.3640 O   0  0  0  0  0  0  0  0  0  0  0  0
   11.1880   -1.0700   22.8480 C   0  0  0  0  0  0  0  0  0  0  0  0
   12.1930   -1.8600   22.4410 C   0  0  0  0  0  0  0  0  0  0  0  0
   13.5110   -1.2910   22.0950 C   0  0  0  0  0  0  0  0  0  0  0  0
   14.4380   -2.0110   21.7430 O   0  0  0  0  0  0  0  0  0  0  0  0
   13.6490    0.0640   22.2120 N   0  0  0  0  0  0  0  0  0  0  0  0
   12.6160    0.9220   22.6130 C   0  0  0  0  0  0  0  0  0  0  0  0
   12.8600    2.2950   22.6820 C   0  0  0  0  0  0  0  0  0  0  0  0
   11.8330    3.1500   23.0660 C   0  0  0  0  0  0  0  0  0  0  0  0
   12.1070    4.4840   23.1190 O   0  0  0  0  0  0  0  0  0  0  0  0
   10.5740    2.6540   23.3780 C   0  0  0  0  0  0  0  0  0  0  0  0
   10.3460    1.2790   23.3080 C   0  0  0  0  0  0  0  0  0  0  0  0
    9.1170    0.8390   23.6040 F   0  0  0  0  0  0  0  0  0  0  0  0
   11.3590    0.3890   22.9360 C   0  0  0  0  0  0  0  0  0  0  0  0
    3.2065    2.1695   22.3294 H   0  0  0  0  0  0  0  0  0  0  0  0
    3.9051    2.7397   20.7759 H   0  0  0  0  0  0  0  0  0  0  0  0
    2.6224    1.4822   20.7759 H   0  0  0  0  0  0  0  0  0  0  0  0
    4.3226    2.1063   18.9589 H   0  0  0  0  0  0  0  0  0  0  0  0
    5.8844    1.6857   17.0613 H   0  0  0  0  0  0  0  0  0  0  0  0
    7.7599    0.0623   17.3065 H   0  0  0  0  0  0  0  0  0  0  0  0
    8.0705   -1.1573   19.4637 H   0  0  0  0  0  0  0  0  0  0  0  0
    5.8768   -2.8735   21.4992 H   0  0  0  0  0  0  0  0  0  0  0  0
    7.1118   -2.4442   20.2819 H   0  0  0  0  0  0  0  0  0  0  0  0
    7.5062   -2.7335   23.3111 H   0  0  0  0  0  0  0  0  0  0  0  0
    8.1808   -3.7883   22.0075 H   0  0  0  0  0  0  0  0  0  0  0  0
    9.3560   -1.6570   21.2440 H   0  0  0  0  0  0  0  0  0  0  0  0
   12.0332   -2.9456   22.3640 H   0  0  0  0  0  0  0  0  0  0  0  0
   14.5570    0.4350   21.9640 H   0  0  0  0  0  0  0  0  0  0  0  0
   13.8541    2.6960   22.4352 H   0  0  0  0  0  0  0  0  0  0  0  0
   12.5480    4.7530   22.2960 H   0  0  0  0  0  0  0  0  0  0  0  0
    9.7655    3.3373   23.6770 H   0  0  0  0  0  0  0  0  0  0  0  0
  1  2  1  0
  2  3  1  0
  3  4  2  0
  4  5  1  0
  5  6  2  0
  6  7  1  0
  7  8  2  0
  8  9  1  0
  9 10  1  0
 10 11  1  0
 11 12  1  0
 12 13  1  0
 13 14  2  0
 13 15  1  0
 15 16  2  0
 16 17  1  0
 17 18  2  0
 17 19  1  0
 19 20  1  0
 20 21  2  0
 21 22  1  0
 22 23  1  0
 22 24  2  0
 24 25  1  0
 25 26  1  0
 25 27  2  0
  8  3  1  0
 27 15  1  0
 27 20  1  0
  1 28  1  0
  1 29  1  0
  1 30  1  0
  4 31  1  0
  5 32  1  0
  6 33  1  0
  7 34  1  0
 10 35  1  0
 10 36  1  0
 11 37  1  0
 11 38  1  0
 12 39  1  0
 16 40  1  0
 19 41  1  0
 21 42  1  0
 23 43  1  0
 24 44  1  0
M  END
>  <meeko>  (1) 
{"is_sidechain": [false], "free_energy": -7.16, "intermolecular_energy": -9.881, "internal_energy": -0.958}

$$$$
N3R_modified_OH
     RDKit          3D

 44 46  0  0  0  0  0  0  0  0999 V2000
    5.0460    3.5160   20.7970 C   0  0  0  0  0  0  0  0  0  0  0  0
    4.4240    2.2520   20.5810 O   0  0  0  0  0  0  0  0  0  0  0  0
    5.1630    1.3140   19.9030 C   0  0  0  0  0  0  0  0  0  0  0  0
    5.5610    1.4170   18.5670 C   0  0  0  0  0  0  0  0  0  0  0  0
    6.3090    0.3940   17.9710 C   0  0  0  0  0  0  0  0  0  0  0  0
    6.6720   -0.7360   18.7020 C   0  0  0  0  0  0  0  0  0  0  0  0
    6.2810   -0.8520   20.0330 C   0  0  0  0  0  0  0  0  0  0  0  0
    5.5150    0.1590   20.6180 C   0  0  0  0  0  0  0  0  0  0  0  0
    5.1600    0.0310   21.9380 O   0  0  0  0  0  0  0  0  0  0  0  0
    6.3200   -0.2290   22.7480 C   0  0  0  0  0  0  0  0  0  0  0  0
    6.8290    1.1050   23.2900 C   0  0  0  0  0  0  0  0  0  0  0  0
    8.2780    1.1520   23.2780 N   0  0  0  0  0  0  0  0  0  0  0  0
    8.9750    1.6050   22.1890 C   0  0  0  0  0  0  0  0  0  0  0  0
    8.4960    1.8020   21.0800 O   0  0  0  0  0  0  0  0  0  0  0  0
   10.4190    1.7960   22.4590 C   0  0  0  0  0  0  0  0  0  0  0  0
   10.7610    3.0450   22.8110 C   0  0  0  0  0  0  0  0  0  0  0  0
   12.1720    3.4060   23.0500 C   0  0  0  0  0  0  0  0  0  0  0  0
   12.4910    4.5490   23.3520 O   0  0  0  0  0  0  0  0  0  0  0  0
   13.0980    2.4120   22.8950 N   0  0  0  0  0  0  0  0  0  0  0  0
   12.7770    1.0930   22.5480 C   0  0  0  0  0  0  0  0  0  0  0  0
   13.8010    0.1510   22.4330 C   0  0  0  0  0  0  0  0  0  0  0  0
   13.4830   -1.1620   22.1030 C   0  0  0  0  0  0  0  0  0  0  0  0
   14.5080   -2.0550   22.0020 O   0  0  0  0  0  0  0  0  0  0  0  0
   12.1650   -1.5430   21.8910 C   0  0  0  0  0  0  0  0  0  0  0  0
   11.1530   -0.5900   22.0080 C   0  0  0  0  0  0  0  0  0  0  0  0
    9.8920   -0.9970   21.8090 F   0  0  0  0  0  0  0  0  0  0  0  0
   11.4360    0.7420   22.3270 C   0  0  0  0  0  0  0  0  0  0  0  0
    5.1366    3.7002   21.8777 H   0  0  0  0  0  0  0  0  0  0  0  0
    6.0466    3.5152   20.3400 H   0  0  0  0  0  0  0  0  0  0  0  0
    4.4349    4.3083   20.3400 H   0  0  0  0  0  0  0  0  0  0  0  0
    5.2853    2.3060   17.9808 H   0  0  0  0  0  0  0  0  0  0  0  0
    6.6125    0.4829   16.9175 H   0  0  0  0  0  0  0  0  0  0  0  0
    7.2649   -1.5327   18.2291 H   0  0  0  0  0  0  0  0  0  0  0  0
    6.5736   -1.7347   20.6206 H   0  0  0  0  0  0  0  0  0  0  0  0
    6.0505   -0.8923   23.5831 H   0  0  0  0  0  0  0  0  0  0  0  0
    7.1010   -0.7198   22.1487 H   0  0  0  0  0  0  0  0  0  0  0  0
    6.4375    1.9205   22.6641 H   0  0  0  0  0  0  0  0  0  0  0  0
    6.4834    1.2161   24.3284 H   0  0  0  0  0  0  0  0  0  0  0  0
    8.7350    1.1320   24.1900 H   0  0  0  0  0  0  0  0  0  0  0  0
    9.9789    3.8104   22.9230 H   0  0  0  0  0  0  0  0  0  0  0  0
   14.0590    2.6770   23.0690 H   0  0  0  0  0  0  0  0  0  0  0  0
   14.8477    0.4441   22.6015 H   0  0  0  0  0  0  0  0  0  0  0  0
   14.7130   -2.4090   22.8830 H   0  0  0  0  0  0  0  0  0  0  0  0
   11.9214   -2.5844   21.6337 H   0  0  0  0  0  0  0  0  0  0  0  0
  1  2  1  0
  2  3  1  0
  3  4  2  0
  4  5  1  0
  5  6  2  0
  6  7  1  0
  7  8  2  0
  8  9  1  0
  9 10  1  0
 10 11  1  0
 11 12  1  0
 12 13  1  0
 13 14  2  0
 13 15  1  0
 15 16  2  0
 16 17  1  0
 17 18  2  0
 17 19  1  0
 19 20  1  0
 20 21  2  0
 21 22  1  0
 22 23  1  0
 22 24  2  0
 24 25  1  0
 25 26  1  0
 25 27  2  0
  8  3  1  0
 27 15  1  0
 27 20  1  0
  1 28  1  0
  1 29  1  0
  1 30  1  0
  4 31  1  0
  5 32  1  0
  6 33  1  0
  7 34  1  0
 10 35  1  0
 10 36  1  0
 11 37  1  0
 11 38  1  0
 12 39  1  0
 16 40  1  0
 19 41  1  0
 21 42  1  0
 23 43  1  0
 24 44  1  0
M  END
>  <meeko>  (2) 
{"is_sidechain": [false], "free_energy": -7.104, "intermolecular_energy": -9.553, "internal_energy": -1.208}

$$$$
N3R_modified_OH
     RDKit          3D

 44 46  0  0  0  0  0  0  0  0999 V2000
    7.6260   -0.0250   18.4850 C   0  0  0  0  0  0  0  0  0  0  0  0
    8.1580   -0.1060   19.8040 O   0  0  0  0  0  0  0  0  0  0  0  0
    7.4980    0.6050   20.7750 C   0  0  0  0  0  0  0  0  0  0  0  0
    7.6330    1.9790   20.9950 C   0  0  0  0  0  0  0  0  0  0  0  0
    6.9150    2.6050   22.0220 C   0  0  0  0  0  0  0  0  0  0  0  0
    6.0530    1.8690   22.8340 C   0  0  0  0  0  0  0  0  0  0  0  0
    5.9110    0.5000   22.6280 C   0  0  0  0  0  0  0  0  0  0  0  0
    6.6460   -0.1260   21.6180 C   0  0  0  0  0  0  0  0  0  0  0  0
    6.4720   -1.4720   21.4200 O   0  0  0  0  0  0  0  0  0  0  0  0
    6.8990   -2.2110   22.5780 C   0  0  0  0  0  0  0  0  0  0  0  0
    8.1660   -2.9790   22.2090 C   0  0  0  0  0  0  0  0  0  0  0  0
    9.3070   -2.0880   22.1190 N   0  0  0  0  0  0  0  0  0  0  0  0
   10.1520   -1.8930   23.1790 C   0  0  0  0  0  0  0  0  0  0  0  0
    9.9340   -2.2510   24.3290 O   0  0  0  0  0  0  0  0  0  0  0  0
   11.3760   -1.1400   22.8170 C   0  0  0  0  0  0  0  0  0  0  0  0
   12.3990   -1.9030   22.4020 C   0  0  0  0  0  0  0  0  0  0  0  0
   13.7050   -1.3020   22.0670 C   0  0  0  0  0  0  0  0  0  0  0  0
   14.6470   -1.9980   21.7060 O   0  0  0  0  0  0  0  0  0  0  0  0
   13.8140    0.0540   22.2020 N   0  0  0  0  0  0  0  0  0  0  0  0
   12.7630    0.8840   22.6130 C   0  0  0  0  0  0  0  0  0  0  0  0
   12.9780    2.2610   22.7000 C   0  0  0  0  0  0  0  0  0  0  0  0
   11.9330    3.0890   23.0950 C   0  0  0  0  0  0  0  0  0  0  0  0
   12.1780    4.4280   23.1660 O   0  0  0  0  0  0  0  0  0  0  0  0
   10.6840    2.5620   23.3970 C   0  0  0  0  0  0  0  0  0  0  0  0
   10.4850    1.1850   23.3070 C   0  0  0  0  0  0  0  0  0  0  0  0
    9.2640    0.7150   23.5950 F   0  0  0  0  0  0  0  0  0  0  0  0
   11.5170    0.3200   22.9250 C   0  0  0  0  0  0  0  0  0  0  0  0
    6.5398    0.1404   18.5373 H   0  0  0  0  0  0  0  0  0  0  0  0
    8.0989    0.8115   17.9496 H   0  0  0  0  0  0  0  0  0  0  0  0
    7.8285   -0.9643   17.9496 H   0  0  0  0  0  0  0  0  0  0  0  0
    8.3065    2.5715   20.3584 H   0  0  0  0  0  0  0  0  0  0  0  0
    7.0322    3.6859   22.1892 H   0  0  0  0  0  0  0  0  0  0  0  0
    5.4874    2.3685   23.6343 H   0  0  0  0  0  0  0  0  0  0  0  0
    5.2242   -0.0858   23.2566 H   0  0  0  0  0  0  0  0  0  0  0  0
    7.1106   -1.5180   23.4056 H   0  0  0  0  0  0  0  0  0  0  0  0
    6.1102   -2.9077   22.8980 H   0  0  0  0  0  0  0  0  0  0  0  0
    8.3631   -3.7390   22.9795 H   0  0  0  0  0  0  0  0  0  0  0  0
    8.0145   -3.4541   21.2285 H   0  0  0  0  0  0  0  0  0  0  0  0
    9.6260   -1.8620   21.1780 H   0  0  0  0  0  0  0  0  0  0  0  0
   12.2625   -2.9906   22.3103 H   0  0  0  0  0  0  0  0  0  0  0  0
   14.7150    0.4470   21.9610 H   0  0  0  0  0  0  0  0  0  0  0  0
   13.9634    2.6861   22.4587 H   0  0  0  0  0  0  0  0  0  0  0  0
   11.3640    4.9150   22.9580 H   0  0  0  0  0  0  0  0  0  0  0  0
    9.8607    3.2238   23.7039 H   0  0  0  0  0  0  0  0  0  0  0  0
  1  2  1  0
  2  3  1  0
  3  4  2  0
  4  5  1  0
  5  6  2  0
  6  7  1  0
  7  8  2  0
  8  9  1  0
  9 10  1  0
 10 11  1  0
 11 12  1  0
 12 13  1  0
 13 14  2  0
 13 15  1  0
 15 16  2  0
 16 17  1  0
 17 18  2  0
 17 19  1  0
 19 20  1  0
 20 21  2  0
 21 22  1  0
 22 23  1  0
 22 24  2  0
 24 25  1  0
 25 26  1  0
 25 27  2  0
  8  3  1  0
 27 15  1  0
 27 20  1  0
  1 28  1  0
  1 29  1  0
  1 30  1  0
  4 31  1  0
  5 32  1  0
  6 33  1  0
  7 34  1  0
 10 35  1  0
 10 36  1  0
 11 37  1  0
 11 38  1  0
 12 39  1  0
 16 40  1  0
 19 41  1  0
 21 42  1  0
 23 43  1  0
 24 44  1  0
M  END
>  <meeko>  (3) 
{"is_sidechain": [false], "free_energy": -7.061, "intermolecular_energy": -8.918, "internal_energy": -1.784}

$$$$
N3R_modified_OH
     RDKit          3D

 44 46  0  0  0  0  0  0  0  0999 V2000
    7.0290    3.4710   21.6730 C   0  0  0  0  0  0  0  0  0  0  0  0
    7.0240    2.0490   21.5760 O   0  0  0  0  0  0  0  0  0  0  0  0
    6.7440    1.5210   20.3410 C   0  0  0  0  0  0  0  0  0  0  0  0
    5.6690    1.8960   19.5310 C   0  0  0  0  0  0  0  0  0  0  0  0
    5.4730    1.2850   18.2860 C   0  0  0  0  0  0  0  0  0  0  0  0
    6.3490    0.2980   17.8370 C   0  0  0  0  0  0  0  0  0  0  0  0
    7.4230   -0.0880   18.6340 C   0  0  0  0  0  0  0  0  0  0  0  0
    7.6030    0.5080   19.8850 C   0  0  0  0  0  0  0  0  0  0  0  0
    8.6810    0.1260   20.6420 O   0  0  0  0  0  0  0  0  0  0  0  0
    8.4110   -1.1190   21.3120 C   0  0  0  0  0  0  0  0  0  0  0  0
    8.6610   -0.9190   22.8040 C   0  0  0  0  0  0  0  0  0  0  0  0
    8.8650    0.4830   23.1140 N   0  0  0  0  0  0  0  0  0  0  0  0
    9.7580    0.8860   24.0710 C   0  0  0  0  0  0  0  0  0  0  0  0
   10.2950    0.1490   24.8880 O   0  0  0  0  0  0  0  0  0  0  0  0
    9.9910    2.3500   24.0720 C   0  0  0  0  0  0  0  0  0  0  0  0
    9.0700    3.0610   24.7400 C   0  0  0  0  0  0  0  0  0  0  0  0
    9.1320    4.5360   24.7760 C   0  0  0  0  0  0  0  0  0  0  0  0
    8.2820    5.1900   25.3680 O   0  0  0  0  0  0  0  0  0  0  0  0
   10.1630    5.1280   24.1010 N   0  0  0  0  0  0  0  0  0  0  0  0
   11.1540    4.4170   23.4110 C   0  0  0  0  0  0  0  0  0  0  0  0
   12.1740    5.1210   22.7690 C   0  0  0  0  0  0  0  0  0  0  0  0
   13.1660    4.4180   22.0950 C   0  0  0  0  0  0  0  0  0  0  0  0
   14.1480    5.1390   21.4830 O   0  0  0  0  0  0  0  0  0  0  0  0
   13.1540    3.0300   22.0570 C   0  0  0  0  0  0  0  0  0  0  0  0
   12.1260    2.3400   22.7010 C   0  0  0  0  0  0  0  0  0  0  0  0
   12.1530    1.0020   22.6530 F   0  0  0  0  0  0  0  0  0  0  0  0
   11.1050    3.0150   23.3790 C   0  0  0  0  0  0  0  0  0  0  0  0
    7.0300    3.7662   22.7326 H   0  0  0  0  0  0  0  0  0  0  0  0
    7.9285    3.8689   21.1806 H   0  0  0  0  0  0  0  0  0  0  0  0
    6.1323    3.8753   21.1806 H   0  0  0  0  0  0  0  0  0  0  0  0
    4.9725    2.6757   19.8731 H   0  0  0  0  0  0  0  0  0  0  0  0
    4.6216    1.5862   17.6580 H   0  0  0  0  0  0  0  0  0  0  0  0
    6.1921   -0.1743   16.8560 H   0  0  0  0  0  0  0  0  0  0  0  0
    8.1256   -0.8574   18.2812 H   0  0  0  0  0  0  0  0  0  0  0  0
    7.3640   -1.4125   21.1455 H   0  0  0  0  0  0  0  0  0  0  0  0
    9.0641   -1.9123   20.9194 H   0  0  0  0  0  0  0  0  0  0  0  0
    7.7915   -1.2890   23.3671 H   0  0  0  0  0  0  0  0  0  0  0  0
    9.5675   -1.4753   23.0849 H   0  0  0  0  0  0  0  0  0  0  0  0
    8.5620    1.1480   22.4020 H   0  0  0  0  0  0  0  0  0  0  0  0
    8.2584    2.5386   25.2676 H   0  0  0  0  0  0  0  0  0  0  0  0
   10.1920    6.1380   24.1430 H   0  0  0  0  0  0  0  0  0  0  0  0
   12.1927    6.2205   22.7961 H   0  0  0  0  0  0  0  0  0  0  0  0
   13.7480    5.7330   20.8270 H   0  0  0  0  0  0  0  0  0  0  0  0
   13.9453    2.4809   21.5257 H   0  0  0  0  0  0  0  0  0  0  0  0
  1  2  1  0
  2  3  1  0
  3  4  2  0
  4  5  1  0
  5  6  2  0
  6  7  1  0
  7  8  2  0
  8  9  1  0
  9 10  1  0
 10 11  1  0
 11 12  1  0
 12 13  1  0
 13 14  2  0
 13 15  1  0
 15 16  2  0
 16 17  1  0
 17 18  2  0
 17 19  1  0
 19 20  1  0
 20 21  2  0
 21 22  1  0
 22 23  1  0
 22 24  2  0
 24 25  1  0
 25 26  1  0
 25 27  2  0
  8  3  1  0
 27 15  1  0
 27 20  1  0
  1 28  1  0
  1 29  1  0
  1 30  1  0
  4 31  1  0
  5 32  1  0
  6 33  1  0
  7 34  1  0
 10 35  1  0
 10 36  1  0
 11 37  1  0
 11 38  1  0
 12 39  1  0
 16 40  1  0
 19 41  1  0
 21 42  1  0
 23 43  1  0
 24 44  1  0
M  END
>  <meeko>  (4) 
{"is_sidechain": [false], "free_energy": -6.933, "intermolecular_energy": -9.139, "internal_energy": -1.386}

$$$$
N3R_modified_OH
     RDKit          3D

 44 46  0  0  0  0  0  0  0  0999 V2000
    8.1280   -1.5790   21.4790 C   0  0  0  0  0  0  0  0  0  0  0  0
    8.4860   -0.3970   20.7670 O   0  0  0  0  0  0  0  0  0  0  0  0
    7.5020    0.1750   19.9990 C   0  0  0  0  0  0  0  0  0  0  0  0
    7.1700   -0.2130   18.6990 C   0  0  0  0  0  0  0  0  0  0  0  0
    6.1500    0.4470   18.0010 C   0  0  0  0  0  0  0  0  0  0  0  0
    5.4500    1.4960   18.5960 C   0  0  0  0  0  0  0  0  0  0  0  0
    5.7720    1.8940   19.8910 C   0  0  0  0  0  0  0  0  0  0  0  0
    6.8050    1.2490   20.5750 C   0  0  0  0  0  0  0  0  0  0  0  0
    7.0890    1.6460   21.8570 O   0  0  0  0  0  0  0  0  0  0  0  0
    6.1680    2.6660   22.2840 C   0  0  0  0  0  0  0  0  0  0  0  0
    6.9260    3.6480   23.1740 C   0  0  0  0  0  0  0  0  0  0  0  0
    8.3530    3.5810   22.9230 N   0  0  0  0  0  0  0  0  0  0  0  0
    9.2620    3.5160   23.9460 C   0  0  0  0  0  0  0  0  0  0  0  0
    9.0080    3.7210   25.1260 O   0  0  0  0  0  0  0  0  0  0  0  0
   10.6380    3.2180   23.4850 C   0  0  0  0  0  0  0  0  0  0  0  0
   11.3890    4.3010   23.2330 C   0  0  0  0  0  0  0  0  0  0  0  0
   12.7610    4.1660   22.7060 C   0  0  0  0  0  0  0  0  0  0  0  0
   13.4430    5.1520   22.4550 O   0  0  0  0  0  0  0  0  0  0  0  0
   13.2180    2.8950   22.4930 N   0  0  0  0  0  0  0  0  0  0  0  0
   12.4710    1.7410   22.7640 C   0  0  0  0  0  0  0  0  0  0  0  0
   13.0410    0.4890   22.5250 C   0  0  0  0  0  0  0  0  0  0  0  0
   12.3070   -0.6580   22.8060 C   0  0  0  0  0  0  0  0  0  0  0  0
   12.8960   -1.8630   22.5630 O   0  0  0  0  0  0  0  0  0  0  0  0
   11.0200   -0.5700   23.3230 C   0  0  0  0  0  0  0  0  0  0  0  0
   10.4630    0.6880   23.5540 C   0  0  0  0  0  0  0  0  0  0  0  0
    9.2250    0.7330   24.0630 F   0  0  0  0  0  0  0  0  0  0  0  0
   11.1680    1.8630   23.2720 C   0  0  0  0  0  0  0  0  0  0  0  0
    8.1861   -1.3873   22.5606 H   0  0  0  0  0  0  0  0  0  0  0  0
    7.1013   -1.8705   21.2129 H   0  0  0  0  0  0  0  0  0  0  0  0
    8.8204   -2.3912   21.2129 H   0  0  0  0  0  0  0  0  0  0  0  0
    7.7125   -1.0416   18.2203 H   0  0  0  0  0  0  0  0  0  0  0  0
    5.8996    0.1354   16.9762 H   0  0  0  0  0  0  0  0  0  0  0  0
    4.6469    2.0069   18.0447 H   0  0  0  0  0  0  0  0  0  0  0  0
    5.2159    2.7118   20.3726 H   0  0  0  0  0  0  0  0  0  0  0  0
    5.7632    3.1933   21.4076 H   0  0  0  0  0  0  0  0  0  0  0  0
    5.3320    2.2159   22.8394 H   0  0  0  0  0  0  0  0  0  0  0  0
    6.5717    4.6686   22.9670 H   0  0  0  0  0  0  0  0  0  0  0  0
    6.7419    3.3825   24.2255 H   0  0  0  0  0  0  0  0  0  0  0  0
    8.6300    3.2780   21.9890 H   0  0  0  0  0  0  0  0  0  0  0  0
   10.9765    5.3031   23.4218 H   0  0  0  0  0  0  0  0  0  0  0  0
   14.1630    2.8220   22.1380 H   0  0  0  0  0  0  0  0  0  0  0  0
   14.0602    0.4109   22.1186 H   0  0  0  0  0  0  0  0  0  0  0  0
   12.8700   -2.0460   21.6090 H   0  0  0  0  0  0  0  0  0  0  0  0
   10.4471   -1.4818   23.5475 H   0  0  0  0  0  0  0  0  0  0  0  0
  1  2  1  0
  2  3  1  0
  3  4  2  0
  4  5  1  0
  5  6  2  0
  6  7  1  0
  7  8  2  0
  8  9  1  0
  9 10  1  0
 10 11  1  0
 11 12  1  0
 12 13  1  0
 13 14  2  0
 13 15  1  0
 15 16  2  0
 16 17  1  0
 17 18  2  0
 17 19  1  0
 19 20  1  0
 20 21  2  0
 21 22  1  0
 22 23  1  0
 22 24  2  0
 24 25  1  0
 25 26  1  0
 25 27  2  0
  8  3  1  0
 27 15  1  0
 27 20  1  0
  1 28  1  0
  1 29  1  0
  1 30  1  0
  4 31  1  0
  5 32  1  0
  6 33  1  0
  7 34  1  0
 10 35  1  0
 10 36  1  0
 11 37  1  0
 11 38  1  0
 12 39  1  0
 16 40  1  0
 19 41  1  0
 21 42  1  0
 23 43  1  0
 24 44  1  0
M  END
>  <meeko>  (5) 
{"is_sidechain": [false], "free_energy": -6.835, "intermolecular_energy": -9.188, "internal_energy": -1.202}

$$$$
