MODEL 1
REMARK VINA RESULT:    -6.842      0.000      0.000
REMARK INTER + INTRA:         -10.450
REMARK INTER:                  -9.242
REMARK INTRA:                  -1.208
REMARK UNBOUND:                -1.208
REMARK SMILES COc1ccccc1OCCNC(=O)C1=CC(=O)Cc2cccc(F)c21
REMARK SMILES IDX 10 1 11 2 12 3 13 4 14 5 15 7 19 8 20 9 17 10 21 11 26 12
REMARK SMILES IDX 16 13 22 14 24 15 23 16 18 17 25 18 9 19 8 20 7 21 3 22 6 23
REMARK SMILES IDX 4 24 5 25 2 26 1 27
REMARK H PARENT 12 6
ROOT
ATOM      1  C   UNL     1       5.963   0.348  22.989  1.00  0.00     0.251 C 
ENDROOT
BRANCH   1   2
ATOM      2  C   UNL     1       6.488   1.744  23.151  1.00  0.00     0.157 C 
BRANCH   2   3
ATOM      3  N   UNL     1       7.926   1.711  23.350  1.00  0.00    -0.349 N 
ATOM      4  C   UNL     1       8.786   1.874  22.236  1.00  0.00     0.252 C 
ATOM      5  O   UNL     1       8.307   2.121  21.100  1.00  0.00    -0.269 OA
ATOM      6  H   UNL     1       8.343   1.551  24.296  1.00  0.00     0.163 HD
BRANCH   4   7
ATOM      7  C   UNL     1      10.233   1.804  22.417  1.00  0.00     0.053 C 
ATOM      8  C   UNL     1      13.144   1.692  22.814  1.00  0.00     0.116 C 
ATOM      9  C   UNL     1      12.342   0.464  22.564  1.00  0.00    -0.029 A 
ATOM     10  C   UNL     1      12.350   2.937  22.833  1.00  0.00     0.160 C 
ATOM     11  C   UNL     1      13.029  -0.751  22.529  1.00  0.00     0.005 A 
ATOM     12  C   UNL     1      10.944   0.501  22.369  1.00  0.00     0.027 A 
ATOM     13  C   UNL     1      10.903   2.942  22.625  1.00  0.00     0.062 C 
ATOM     14  C   UNL     1      12.341  -1.935  22.299  1.00  0.00     0.003 A 
ATOM     15  C   UNL     1      10.262  -0.709  22.127  1.00  0.00     0.131 A 
ATOM     16  C   UNL     1      10.963  -1.914  22.097  1.00  0.00     0.040 A 
ATOM     17  O   UNL     1      12.952   4.016  23.039  1.00  0.00    -0.294 OA
ATOM     18  F   UNL     1       8.925  -0.742  21.917  1.00  0.00    -0.206 F 
ENDBRANCH   4   7
ENDBRANCH   2   3
ENDBRANCH   1   2
BRANCH   1  19
ATOM     19  O   UNL     1       5.010   0.295  21.929  1.00  0.00    -0.488 OA
BRANCH  19  20
ATOM     20  C   UNL     1       5.421   0.341  20.597  1.00  0.00     0.161 A 
ATOM     21  C   UNL     1       6.271  -0.657  20.081  1.00  0.00     0.050 A 
ATOM     22  C   UNL     1       4.997   1.385  19.757  1.00  0.00     0.160 A 
ATOM     23  C   UNL     1       6.684  -0.620  18.762  1.00  0.00     0.004 A 
ATOM     24  C   UNL     1       5.430   1.407  18.420  1.00  0.00     0.050 A 
ATOM     25  C   UNL     1       6.266   0.410  17.932  1.00  0.00     0.004 A 
BRANCH  22  26
ATOM     26  O   UNL     1       4.157   2.386  20.252  1.00  0.00    -0.493 OA
ATOM     27  C   UNL     1       4.639   3.678  20.612  1.00  0.00     0.278 C 
ENDBRANCH  22  26
ENDBRANCH  19  20
ENDBRANCH   1  19
TORSDOF 6
ENDMDL
MODEL 2
REMARK VINA RESULT:    -6.776      2.292      3.364
REMARK INTER + INTRA:         -10.361
REMARK INTER:                  -9.436
REMARK INTRA:                  -0.925
REMARK UNBOUND:                -1.208
REMARK SMILES COc1ccccc1OCCNC(=O)C1=CC(=O)Cc2cccc(F)c21
REMARK SMILES IDX 10 1 11 2 12 3 13 4 14 5 15 7 19 8 20 9 17 10 21 11 26 12
REMARK SMILES IDX 16 13 22 14 24 15 23 16 18 17 25 18 9 19 8 20 7 21 3 22 6 23
REMARK SMILES IDX 4 24 5 25 2 26 1 27
REMARK H PARENT 12 6
ROOT
ATOM      1  C   UNL     1       6.782  -2.235  21.698  1.00  0.00     0.251 C 
ENDROOT
BRANCH   1   2
ATOM      2  C   UNL     1       7.951  -3.011  22.228  1.00  0.00     0.157 C 
BRANCH   2   3
ATOM      3  N   UNL     1       9.184  -2.286  21.969  1.00  0.00    -0.349 N 
ATOM      4  C   UNL     1      10.068  -2.014  23.041  1.00  0.00     0.252 C 
ATOM      5  O   UNL     1       9.824  -2.463  24.191  1.00  0.00    -0.269 OA
ATOM      6  H   UNL     1       9.424  -1.943  21.010  1.00  0.00     0.163 HD
BRANCH   4   7
ATOM      7  C   UNL     1      11.291  -1.253  22.800  1.00  0.00     0.053 C 
ATOM      8  C   UNL     1      13.760   0.257  22.280  1.00  0.00     0.116 C 
ATOM      9  C   UNL     1      12.511   0.931  22.725  1.00  0.00    -0.029 A 
ATOM     10  C   UNL     1      13.635  -1.208  22.140  1.00  0.00     0.160 C 
ATOM     11  C   UNL     1      12.556   2.317  22.883  1.00  0.00     0.005 A 
ATOM     12  C   UNL     1      11.318   0.221  22.981  1.00  0.00     0.027 A 
ATOM     13  C   UNL     1      12.386  -1.915  22.415  1.00  0.00     0.062 C 
ATOM     14  C   UNL     1      11.426   3.010  23.297  1.00  0.00     0.003 A 
ATOM     15  C   UNL     1      10.182   0.938  23.410  1.00  0.00     0.131 A 
ATOM     16  C   UNL     1      10.244   2.322  23.561  1.00  0.00     0.040 A 
ATOM     17  O   UNL     1      14.644  -1.852  21.767  1.00  0.00    -0.294 OA
ATOM     18  F   UNL     1       9.012   0.316  23.688  1.00  0.00    -0.206 F 
ENDBRANCH   4   7
ENDBRANCH   2   3
ENDBRANCH   1   2
BRANCH   1  19
ATOM     19  O   UNL     1       7.145  -0.872  21.484  1.00  0.00    -0.488 OA
BRANCH  19  20
ATOM     20  C   UNL     1       6.749  -0.203  20.326  1.00  0.00     0.161 A 
ATOM     21  C   UNL     1       7.517  -0.303  19.149  1.00  0.00     0.050 A 
ATOM     22  C   UNL     1       5.583   0.583  20.322  1.00  0.00     0.160 A 
ATOM     23  C   UNL     1       7.132   0.358  17.997  1.00  0.00     0.004 A 
ATOM     24  C   UNL     1       5.210   1.248  19.141  1.00  0.00     0.050 A 
ATOM     25  C   UNL     1       5.981   1.133  17.992  1.00  0.00     0.004 A 
BRANCH  22  26
ATOM     26  O   UNL     1       4.811   0.697  21.481  1.00  0.00    -0.493 OA
ATOM     27  C   UNL     1       3.648   1.518  21.545  1.00  0.00     0.278 C 
ENDBRANCH  22  26
ENDBRANCH  19  20
ENDBRANCH   1  19
TORSDOF 6
ENDMDL
MODEL 3
REMARK VINA RESULT:    -6.646      2.062      6.770
REMARK INTER + INTRA:         -10.185
REMARK INTER:                  -8.982
REMARK INTRA:                  -1.203
REMARK UNBOUND:                -1.208
REMARK SMILES COc1ccccc1OCCNC(=O)C1=CC(=O)Cc2cccc(F)c21
REMARK SMILES IDX 10 1 11 2 12 3 13 4 14 5 15 7 19 8 20 9 17 10 21 11 26 12
REMARK SMILES IDX 16 13 22 14 24 15 23 16 18 17 25 18 9 19 8 20 7 21 3 22 6 23
REMARK SMILES IDX 4 24 5 25 2 26 1 27
REMARK H PARENT 12 6
ROOT
ATOM      1  C   UNL     1      10.137  -2.566  22.799  1.00  0.00     0.251 C 
ENDROOT
BRANCH   1   2
ATOM      2  C   UNL     1       8.711  -2.846  22.428  1.00  0.00     0.157 C 
BRANCH   2   3
ATOM      3  N   UNL     1       8.127  -1.678  21.790  1.00  0.00    -0.349 N 
ATOM      4  C   UNL     1       6.898  -1.806  21.098  1.00  0.00     0.252 C 
ATOM      5  O   UNL     1       6.281  -2.902  21.103  1.00  0.00    -0.269 OA
ATOM      6  H   UNL     1       8.605  -0.747  21.813  1.00  0.00     0.163 HD
BRANCH   4   7
ATOM      7  C   UNL     1       6.321  -0.648  20.419  1.00  0.00     0.053 C 
ATOM      8  C   UNL     1       5.150   1.657  19.020  1.00  0.00     0.116 C 
ATOM      9  C   UNL     1       4.923   1.427  20.472  1.00  0.00    -0.029 A 
ATOM     10  C   UNL     1       6.008   0.642  18.376  1.00  0.00     0.160 C 
ATOM     11  C   UNL     1       4.123   2.350  21.147  1.00  0.00     0.005 A 
ATOM     12  C   UNL     1       5.479   0.326  21.159  1.00  0.00     0.027 A 
ATOM     13  C   UNL     1       6.572  -0.485  19.117  1.00  0.00     0.062 C 
ATOM     14  C   UNL     1       3.871   2.196  22.503  1.00  0.00     0.003 A 
ATOM     15  C   UNL     1       5.221   0.188  22.538  1.00  0.00     0.131 A 
ATOM     16  C   UNL     1       4.419   1.119  23.197  1.00  0.00     0.040 A 
ATOM     17  O   UNL     1       6.248   0.764  17.152  1.00  0.00    -0.294 OA
ATOM     18  F   UNL     1       5.738  -0.835  23.260  1.00  0.00    -0.206 F 
ENDBRANCH   4   7
ENDBRANCH   2   3
ENDBRANCH   1   2
BRANCH   1  19
ATOM     19  O   UNL     1      10.759  -1.752  21.807  1.00  0.00    -0.488 OA
BRANCH  19  20
ATOM     20  C   UNL     1      11.472  -0.609  22.166  1.00  0.00     0.161 A 
ATOM     21  C   UNL     1      12.797  -0.715  22.632  1.00  0.00     0.050 A 
ATOM     22  C   UNL     1      10.875   0.661  22.071  1.00  0.00     0.160 A 
ATOM     23  C   UNL     1      13.512   0.414  22.991  1.00  0.00     0.004 A 
ATOM     24  C   UNL     1      11.618   1.795  22.443  1.00  0.00     0.050 A 
ATOM     25  C   UNL     1      12.924   1.667  22.898  1.00  0.00     0.004 A 
BRANCH  22  26
ATOM     26  O   UNL     1       9.561   0.785  21.614  1.00  0.00    -0.493 OA
ATOM     27  C   UNL     1       8.869   2.031  21.610  1.00  0.00     0.278 C 
ENDBRANCH  22  26
ENDBRANCH  19  20
ENDBRANCH   1  19
TORSDOF 6
ENDMDL
MODEL 4
REMARK VINA RESULT:    -6.614      2.520      3.991
REMARK INTER + INTRA:         -10.141
REMARK INTER:                  -8.507
REMARK INTRA:                  -1.635
REMARK UNBOUND:                -1.208
REMARK SMILES COc1ccccc1OCCNC(=O)C1=CC(=O)Cc2cccc(F)c21
REMARK SMILES IDX 10 1 11 2 12 3 13 4 14 5 15 7 19 8 20 9 17 10 21 11 26 12
REMARK SMILES IDX 16 13 22 14 24 15 23 16 18 17 25 18 9 19 8 20 7 21 3 22 6 23
REMARK SMILES IDX 4 24 5 25 2 26 1 27
REMARK H PARENT 12 6
ROOT
ATOM      1  C   UNL     1       6.852  -2.948  22.382  1.00  0.00     0.251 C 
ENDROOT
BRANCH   1   2
ATOM      2  C   UNL     1       8.173  -3.659  22.402  1.00  0.00     0.157 C 
BRANCH   2   3
ATOM      3  N   UNL     1       9.246  -2.716  22.136  1.00  0.00    -0.349 N 
ATOM      4  C   UNL     1      10.173  -2.410  23.162  1.00  0.00     0.252 C 
ATOM      5  O   UNL     1      10.111  -3.008  24.267  1.00  0.00    -0.269 OA
ATOM      6  H   UNL     1       9.339  -2.243  21.208  1.00  0.00     0.163 HD
BRANCH   4   7
ATOM      7  C   UNL     1      11.232  -1.435  22.919  1.00  0.00     0.053 C 
ATOM      8  C   UNL     1      13.375   0.509  22.392  1.00  0.00     0.116 C 
ATOM      9  C   UNL     1      12.052   0.930  22.928  1.00  0.00    -0.029 A 
ATOM     10  C   UNL     1      13.497  -0.946  22.167  1.00  0.00     0.160 C 
ATOM     11  C   UNL     1      11.866   2.292  23.169  1.00  0.00     0.005 A 
ATOM     12  C   UNL     1      11.014   0.009  23.189  1.00  0.00     0.027 A 
ATOM     13  C   UNL     1      12.404  -1.874  22.449  1.00  0.00     0.062 C 
ATOM     14  C   UNL     1      10.656   2.753  23.670  1.00  0.00     0.003 A 
ATOM     15  C   UNL     1       9.795   0.492  23.706  1.00  0.00     0.131 A 
ATOM     16  C   UNL     1       9.625   1.856  23.940  1.00  0.00     0.040 A 
ATOM     17  O   UNL     1      14.582  -1.382  21.715  1.00  0.00    -0.294 OA
ATOM     18  F   UNL     1       8.765  -0.339  23.993  1.00  0.00    -0.206 F 
ENDBRANCH   4   7
ENDBRANCH   2   3
ENDBRANCH   1   2
BRANCH   1  19
ATOM     19  O   UNL     1       6.803  -2.019  21.301  1.00  0.00    -0.488 OA
BRANCH  19  20
ATOM     20  C   UNL     1       6.702  -0.649  21.542  1.00  0.00     0.161 A 
ATOM     21  C   UNL     1       5.920  -0.171  22.612  1.00  0.00     0.050 A 
ATOM     22  C   UNL     1       7.375   0.270  20.718  1.00  0.00     0.160 A 
ATOM     23  C   UNL     1       5.814   1.186  22.858  1.00  0.00     0.004 A 
ATOM     24  C   UNL     1       7.253   1.645  20.983  1.00  0.00     0.050 A 
ATOM     25  C   UNL     1       6.478   2.093  22.045  1.00  0.00     0.004 A 
BRANCH  22  26
ATOM     26  O   UNL     1       8.153  -0.185  19.650  1.00  0.00    -0.493 OA
ATOM     27  C   UNL     1       7.725  -0.079  18.295  1.00  0.00     0.278 C 
ENDBRANCH  22  26
ENDBRANCH  19  20
ENDBRANCH   1  19
TORSDOF 6
ENDMDL
MODEL 5
REMARK VINA RESULT:    -6.550      1.725      6.567
REMARK INTER + INTRA:         -10.055
REMARK INTER:                  -9.046
REMARK INTRA:                  -1.009
REMARK UNBOUND:                -1.208
REMARK SMILES COc1ccccc1OCCNC(=O)C1=CC(=O)Cc2cccc(F)c21
REMARK SMILES IDX 10 1 11 2 12 3 13 4 14 5 15 7 19 8 20 9 17 10 21 11 26 12
REMARK SMILES IDX 16 13 22 14 24 15 23 16 18 17 25 18 9 19 8 20 7 21 3 22 6 23
REMARK SMILES IDX 4 24 5 25 2 26 1 27
REMARK H PARENT 12 6
ROOT
ATOM      1  C   UNL     1      10.787   2.696  23.102  1.00  0.00     0.251 C 
ENDROOT
BRANCH   1   2
ATOM      2  C   UNL     1       9.554   3.368  23.630  1.00  0.00     0.157 C 
BRANCH   2   3
ATOM      3  N   UNL     1       8.529   3.401  22.602  1.00  0.00    -0.349 N 
ATOM      4  C   UNL     1       7.508   2.419  22.607  1.00  0.00     0.252 C 
ATOM      5  O   UNL     1       7.447   1.576  23.539  1.00  0.00    -0.269 OA
ATOM      6  H   UNL     1       8.539   4.122  21.844  1.00  0.00     0.163 HD
BRANCH   4   7
ATOM      7  C   UNL     1       6.494   2.418  21.556  1.00  0.00     0.053 C 
ATOM      8  C   UNL     1       4.450   2.458  19.443  1.00  0.00     0.116 C 
ATOM      9  C   UNL     1       5.667   1.608  19.337  1.00  0.00    -0.029 A 
ATOM     10  C   UNL     1       4.375   3.249  20.688  1.00  0.00     0.160 C 
ATOM     11  C   UNL     1       5.804   0.830  18.186  1.00  0.00     0.005 A 
ATOM     12  C   UNL     1       6.656   1.576  20.343  1.00  0.00     0.027 A 
ATOM     13  C   UNL     1       5.415   3.191  21.712  1.00  0.00     0.062 C 
ATOM     14  C   UNL     1       6.914   0.013  18.024  1.00  0.00     0.003 A 
ATOM     15  C   UNL     1       7.774   0.734  20.167  1.00  0.00     0.131 A 
ATOM     16  C   UNL     1       7.895  -0.036  19.012  1.00  0.00     0.040 A 
ATOM     17  O   UNL     1       3.380   3.992  20.853  1.00  0.00    -0.294 OA
ATOM     18  F   UNL     1       8.751   0.644  21.101  1.00  0.00    -0.206 F 
ENDBRANCH   4   7
ENDBRANCH   2   3
ENDBRANCH   1   2
BRANCH   1  19
ATOM     19  O   UNL     1      11.061   1.507  23.842  1.00  0.00    -0.488 OA
BRANCH  19  20
ATOM     20  C   UNL     1      11.829   0.484  23.288  1.00  0.00     0.161 A 
ATOM     21  C   UNL     1      13.179   0.710  22.953  1.00  0.00     0.050 A 
ATOM     22  C   UNL     1      11.265  -0.782  23.054  1.00  0.00     0.160 A 
ATOM     23  C   UNL     1      13.949  -0.299  22.403  1.00  0.00     0.004 A 
ATOM     24  C   UNL     1      12.064  -1.794  22.492  1.00  0.00     0.050 A 
ATOM     25  C   UNL     1      13.392  -1.549  22.172  1.00  0.00     0.004 A 
BRANCH  22  26
ATOM     26  O   UNL     1       9.928  -1.025  23.376  1.00  0.00    -0.493 OA
ATOM     27  C   UNL     1       9.208  -2.142  22.862  1.00  0.00     0.278 C 
ENDBRANCH  22  26
ENDBRANCH  19  20
ENDBRANCH   1  19
TORSDOF 6
ENDMDL
