N3R_modified_C
     RDKit          3D

 44 46  0  0  0  0  0  0  0  0999 V2000
    4.6390    3.6780   20.6120 C   0  0  0  0  0  0  0  0  0  0  0  0
    4.1570    2.3860   20.2520 O   0  0  0  0  0  0  0  0  0  0  0  0
    4.9970    1.3850   19.7570 C   0  0  0  0  0  0  0  0  0  0  0  0
    5.4300    1.4070   18.4200 C   0  0  0  0  0  0  0  0  0  0  0  0
    6.2660    0.4100   17.9320 C   0  0  0  0  0  0  0  0  0  0  0  0
    6.6840   -0.6200   18.7620 C   0  0  0  0  0  0  0  0  0  0  0  0
    6.2710   -0.6570   20.0810 C   0  0  0  0  0  0  0  0  0  0  0  0
    5.4210    0.3410   20.5970 C   0  0  0  0  0  0  0  0  0  0  0  0
    5.0100    0.2950   21.9290 O   0  0  0  0  0  0  0  0  0  0  0  0
    5.9630    0.3480   22.9890 C   0  0  0  0  0  0  0  0  0  0  0  0
    6.4880    1.7440   23.1510 C   0  0  0  0  0  0  0  0  0  0  0  0
    7.9260    1.7110   23.3500 N   0  0  0  0  0  0  0  0  0  0  0  0
    8.7860    1.8740   22.2360 C   0  0  0  0  0  0  0  0  0  0  0  0
    8.3070    2.1210   21.1000 O   0  0  0  0  0  0  0  0  0  0  0  0
   10.2330    1.8040   22.4170 C   0  0  0  0  0  0  0  0  0  0  0  0
   10.9030    2.9420   22.6250 C   0  0  0  0  0  0  0  0  0  0  0  0
   12.3500    2.9370   22.8330 C   0  0  0  0  0  0  0  0  0  0  0  0
   12.9520    4.0160   23.0390 O   0  0  0  0  0  0  0  0  0  0  0  0
   13.1440    1.6920   22.8140 C   0  0  0  0  0  0  0  0  0  0  0  0
   12.3420    0.4640   22.5640 C   0  0  0  0  0  0  0  0  0  0  0  0
   13.0290   -0.7510   22.5290 C   0  0  0  0  0  0  0  0  0  0  0  0
   12.3410   -1.9350   22.2990 C   0  0  0  0  0  0  0  0  0  0  0  0
   10.9630   -1.9140   22.0970 C   0  0  0  0  0  0  0  0  0  0  0  0
   10.2620   -0.7090   22.1270 C   0  0  0  0  0  0  0  0  0  0  0  0
    8.9250   -0.7420   21.9170 F   0  0  0  0  0  0  0  0  0  0  0  0
   10.9440    0.5010   22.3690 C   0  0  0  0  0  0  0  0  0  0  0  0
    4.6714    3.7650   21.7081 H   0  0  0  0  0  0  0  0  0  0  0  0
    5.6503    3.8192   20.2029 H   0  0  0  0  0  0  0  0  0  0  0  0
    3.9673    4.4471   20.2029 H   0  0  0  0  0  0  0  0  0  0  0  0
    5.1044    2.2201   17.7545 H   0  0  0  0  0  0  0  0  0  0  0  0
    6.5976    0.4376   16.8835 H   0  0  0  0  0  0  0  0  0  0  0  0
    7.3444   -1.4078   18.3705 H   0  0  0  0  0  0  0  0  0  0  0  0
    6.6097   -1.4744   20.7345 H   0  0  0  0  0  0  0  0  0  0  0  0
    5.4812    0.0310   23.9257 H   0  0  0  0  0  0  0  0  0  0  0  0
    6.8011   -0.3228   22.7491 H   0  0  0  0  0  0  0  0  0  0  0  0
    6.2581    2.3273   22.2472 H   0  0  0  0  0  0  0  0  0  0  0  0
    6.0119    2.2108   24.0258 H   0  0  0  0  0  0  0  0  0  0  0  0
    8.3430    1.5510   24.2960 H   0  0  0  0  0  0  0  0  0  0  0  0
   10.3571    3.8969   22.6399 H   0  0  0  0  0  0  0  0  0  0  0  0
   13.9014    1.7774   22.0209 H   0  0  0  0  0  0  0  0  0  0  0  0
   13.5873    1.5831   23.8148 H   0  0  0  0  0  0  0  0  0  0  0  0
   14.1179   -0.7703   22.6840 H   0  0  0  0  0  0  0  0  0  0  0  0
   12.8850   -2.8908   22.2763 H   0  0  0  0  0  0  0  0  0  0  0  0
   10.4238   -2.8549   21.9125 H   0  0  0  0  0  0  0  0  0  0  0  0
  1  2  1  0
  2  3  1  0
  3  4  2  0
  4  5  1  0
  5  6  2  0
  6  7  1  0
  7  8  2  0
  8  9  1  0
  9 10  1  0
 10 11  1  0
 11 12  1  0
 12 13  1  0
 13 14  2  0
 13 15  1  0
 15 16  2  0
 16 17  1  0
 17 18  2  0
 17 19  1  0
 19 20  1  0
 20 21  2  0
 21 22  1  0
 22 23  2  0
 23 24  1  0
 24 25  1  0
 24 26  2  0
  8  3  1  0
 26 15  1  0
 26 20  1  0
  1 27  1  0
  1 28  1  0
  1 29  1  0
  4 30  1  0
  5 31  1  0
  6 32  1  0
  7 33  1  0
 10 34  1  0
 10 35  1  0
 11 36  1  0
 11 37  1  0
 12 38  1  0
 16 39  1  0
 19 40  1  0
 19 41  1  0
 21 42  1  0
 22 43  1  0
 23 44  1  0
M  END
>  <meeko>  (1) 
{"is_sidechain": [false], "free_energy": -6.842, "intermolecular_energy": -9.242, "internal_energy": -1.208}

$$$$
N3R_modified_C
     RDKit          3D

 44 46  0  0  0  0  0  0  0  0999 V2000
    3.6480    1.5180   21.5450 C   0  0  0  0  0  0  0  0  0  0  0  0
    4.8110    0.6970   21.4810 O   0  0  0  0  0  0  0  0  0  0  0  0
    5.5830    0.5830   20.3220 C   0  0  0  0  0  0  0  0  0  0  0  0
    5.2100    1.2480   19.1410 C   0  0  0  0  0  0  0  0  0  0  0  0
    5.9810    1.1330   17.9920 C   0  0  0  0  0  0  0  0  0  0  0  0
    7.1320    0.3580   17.9970 C   0  0  0  0  0  0  0  0  0  0  0  0
    7.5170   -0.3030   19.1490 C   0  0  0  0  0  0  0  0  0  0  0  0
    6.7490   -0.2030   20.3260 C   0  0  0  0  0  0  0  0  0  0  0  0
    7.1450   -0.8720   21.4840 O   0  0  0  0  0  0  0  0  0  0  0  0
    6.7820   -2.2350   21.6980 C   0  0  0  0  0  0  0  0  0  0  0  0
    7.9510   -3.0110   22.2280 C   0  0  0  0  0  0  0  0  0  0  0  0
    9.1840   -2.2860   21.9690 N   0  0  0  0  0  0  0  0  0  0  0  0
   10.0680   -2.0140   23.0410 C   0  0  0  0  0  0  0  0  0  0  0  0
    9.8240   -2.4630   24.1910 O   0  0  0  0  0  0  0  0  0  0  0  0
   11.2910   -1.2530   22.8000 C   0  0  0  0  0  0  0  0  0  0  0  0
   12.3860   -1.9150   22.4150 C   0  0  0  0  0  0  0  0  0  0  0  0
   13.6350   -1.2080   22.1400 C   0  0  0  0  0  0  0  0  0  0  0  0
   14.6440   -1.8520   21.7670 O   0  0  0  0  0  0  0  0  0  0  0  0
   13.7600    0.2570   22.2800 C   0  0  0  0  0  0  0  0  0  0  0  0
   12.5110    0.9310   22.7250 C   0  0  0  0  0  0  0  0  0  0  0  0
   12.5560    2.3170   22.8830 C   0  0  0  0  0  0  0  0  0  0  0  0
   11.4260    3.0100   23.2970 C   0  0  0  0  0  0  0  0  0  0  0  0
   10.2440    2.3220   23.5610 C   0  0  0  0  0  0  0  0  0  0  0  0
   10.1820    0.9380   23.4100 C   0  0  0  0  0  0  0  0  0  0  0  0
    9.0120    0.3160   23.6880 F   0  0  0  0  0  0  0  0  0  0  0  0
   11.3180    0.2210   22.9810 C   0  0  0  0  0  0  0  0  0  0  0  0
    3.3868    1.7024   22.5975 H   0  0  0  0  0  0  0  0  0  0  0  0
    3.8477    2.4764   21.0434 H   0  0  0  0  0  0  0  0  0  0  0  0
    2.8118    1.0089   21.0434 H   0  0  0  0  0  0  0  0  0  0  0  0
    4.2994    1.8649   19.1270 H   0  0  0  0  0  0  0  0  0  0  0  0
    5.6782    1.6583   17.0742 H   0  0  0  0  0  0  0  0  0  0  0  0
    7.7387    0.2694   17.0838 H   0  0  0  0  0  0  0  0  0  0  0  0
    8.4323   -0.9132   19.1464 H   0  0  0  0  0  0  0  0  0  0  0  0
    5.9574   -2.2806   22.4246 H   0  0  0  0  0  0  0  0  0  0  0  0
    6.4669   -2.6747   20.7402 H   0  0  0  0  0  0  0  0  0  0  0  0
    7.8327   -3.1538   23.3122 H   0  0  0  0  0  0  0  0  0  0  0  0
    7.9938   -3.9892   21.7267 H   0  0  0  0  0  0  0  0  0  0  0  0
    9.4240   -1.9430   21.0100 H   0  0  0  0  0  0  0  0  0  0  0  0
   12.3467   -3.0086   22.3034 H   0  0  0  0  0  0  0  0  0  0  0  0
   14.5485    0.4680   23.0174 H   0  0  0  0  0  0  0  0  0  0  0  0
   13.9969    0.6530   21.2815 H   0  0  0  0  0  0  0  0  0  0  0  0
   13.4894    2.8621   22.6790 H   0  0  0  0  0  0  0  0  0  0  0  0
   11.4644    4.1028   23.4165 H   0  0  0  0  0  0  0  0  0  0  0  0
    9.3526    2.8754   23.8912 H   0  0  0  0  0  0  0  0  0  0  0  0
  1  2  1  0
  2  3  1  0
  3  4  2  0
  4  5  1  0
  5  6  2  0
  6  7  1  0
  7  8  2  0
  8  9  1  0
  9 10  1  0
 10 11  1  0
 11 12  1  0
 12 13  1  0
 13 14  2  0
 13 15  1  0
 15 16  2  0
 16 17  1  0
 17 18  2  0
 17 19  1  0
 19 20  1  0
 20 21  2  0
 21 22  1  0
 22 23  2  0
 23 24  1  0
 24 25  1  0
 24 26  2  0
  8  3  1  0
 26 15  1  0
 26 20  1  0
  1 27  1  0
  1 28  1  0
  1 29  1  0
  4 30  1  0
  5 31  1  0
  6 32  1  0
  7 33  1  0
 10 34  1  0
 10 35  1  0
 11 36  1  0
 11 37  1  0
 12 38  1  0
 16 39  1  0
 19 40  1  0
 19 41  1  0
 21 42  1  0
 22 43  1  0
 23 44  1  0
M  END
>  <meeko>  (2) 
{"is_sidechain": [false], "free_energy": -6.776, "intermolecular_energy": -9.436, "internal_energy": -0.925}

$$$$
N3R_modified_C
     RDKit          3D

 44 46  0  0  0  0  0  0  0  0999 V2000
    8.8690    2.0310   21.6100 C   0  0  0  0  0  0  0  0  0  0  0  0
    9.5610    0.7850   21.6140 O   0  0  0  0  0  0  0  0  0  0  0  0
   10.8750    0.6610   22.0710 C   0  0  0  0  0  0  0  0  0  0  0  0
   11.6180    1.7950   22.4430 C   0  0  0  0  0  0  0  0  0  0  0  0
   12.9240    1.6670   22.8980 C   0  0  0  0  0  0  0  0  0  0  0  0
   13.5120    0.4140   22.9910 C   0  0  0  0  0  0  0  0  0  0  0  0
   12.7970   -0.7150   22.6320 C   0  0  0  0  0  0  0  0  0  0  0  0
   11.4720   -0.6090   22.1660 C   0  0  0  0  0  0  0  0  0  0  0  0
   10.7590   -1.7520   21.8070 O   0  0  0  0  0  0  0  0  0  0  0  0
   10.1370   -2.5660   22.7990 C   0  0  0  0  0  0  0  0  0  0  0  0
    8.7110   -2.8460   22.4280 C   0  0  0  0  0  0  0  0  0  0  0  0
    8.1270   -1.6780   21.7900 N   0  0  0  0  0  0  0  0  0  0  0  0
    6.8980   -1.8060   21.0980 C   0  0  0  0  0  0  0  0  0  0  0  0
    6.2810   -2.9020   21.1030 O   0  0  0  0  0  0  0  0  0  0  0  0
    6.3210   -0.6480   20.4190 C   0  0  0  0  0  0  0  0  0  0  0  0
    6.5720   -0.4850   19.1170 C   0  0  0  0  0  0  0  0  0  0  0  0
    6.0080    0.6420   18.3760 C   0  0  0  0  0  0  0  0  0  0  0  0
    6.2480    0.7640   17.1520 O   0  0  0  0  0  0  0  0  0  0  0  0
    5.1500    1.6570   19.0200 C   0  0  0  0  0  0  0  0  0  0  0  0
    4.9230    1.4270   20.4720 C   0  0  0  0  0  0  0  0  0  0  0  0
    4.1230    2.3500   21.1470 C   0  0  0  0  0  0  0  0  0  0  0  0
    3.8710    2.1960   22.5030 C   0  0  0  0  0  0  0  0  0  0  0  0
    4.4190    1.1190   23.1970 C   0  0  0  0  0  0  0  0  0  0  0  0
    5.2210    0.1880   22.5380 C   0  0  0  0  0  0  0  0  0  0  0  0
    5.7380   -0.8350   23.2600 F   0  0  0  0  0  0  0  0  0  0  0  0
    5.4790    0.3260   21.1590 C   0  0  0  0  0  0  0  0  0  0  0  0
    8.6896    2.3541   22.6461 H   0  0  0  0  0  0  0  0  0  0  0  0
    9.4769    2.7863   21.0904 H   0  0  0  0  0  0  0  0  0  0  0  0
    7.9065    1.9142   21.0904 H   0  0  0  0  0  0  0  0  0  0  0  0
   11.1607    2.7930   22.3731 H   0  0  0  0  0  0  0  0  0  0  0  0
   13.4942    2.5626   23.1857 H   0  0  0  0  0  0  0  0  0  0  0  0
   14.5472    0.3179   23.3503 H   0  0  0  0  0  0  0  0  0  0  0  0
   13.2683   -1.7057   22.7114 H   0  0  0  0  0  0  0  0  0  0  0  0
   10.6833   -3.5172   22.8818 H   0  0  0  0  0  0  0  0  0  0  0  0
   10.1569   -2.0331   23.7611 H   0  0  0  0  0  0  0  0  0  0  0  0
    8.6756   -3.6974   21.7324 H   0  0  0  0  0  0  0  0  0  0  0  0
    8.1405   -3.0848   23.3377 H   0  0  0  0  0  0  0  0  0  0  0  0
    8.6050   -0.7470   21.8130 H   0  0  0  0  0  0  0  0  0  0  0  0
    7.2131   -1.2101   18.5943 H   0  0  0  0  0  0  0  0  0  0  0  0
    5.6263    2.6408   18.8963 H   0  0  0  0  0  0  0  0  0  0  0  0
    4.1662    1.5971   18.5316 H   0  0  0  0  0  0  0  0  0  0  0  0
    3.6907    3.2024   20.6024 H   0  0  0  0  0  0  0  0  0  0  0  0
    3.2381    2.9248   23.0305 H   0  0  0  0  0  0  0  0  0  0  0  0
    4.2175    1.0025   24.2721 H   0  0  0  0  0  0  0  0  0  0  0  0
  1  2  1  0
  2  3  1  0
  3  4  2  0
  4  5  1  0
  5  6  2  0
  6  7  1  0
  7  8  2  0
  8  9  1  0
  9 10  1  0
 10 11  1  0
 11 12  1  0
 12 13  1  0
 13 14  2  0
 13 15  1  0
 15 16  2  0
 16 17  1  0
 17 18  2  0
 17 19  1  0
 19 20  1  0
 20 21  2  0
 21 22  1  0
 22 23  2  0
 23 24  1  0
 24 25  1  0
 24 26  2  0
  8  3  1  0
 26 15  1  0
 26 20  1  0
  1 27  1  0
  1 28  1  0
  1 29  1  0
  4 30  1  0
  5 31  1  0
  6 32  1  0
  7 33  1  0
 10 34  1  0
 10 35  1  0
 11 36  1  0
 11 37  1  0
 12 38  1  0
 16 39  1  0
 19 40  1  0
 19 41  1  0
 21 42  1  0
 22 43  1  0
 23 44  1  0
M  END
>  <meeko>  (3) 
{"is_sidechain": [false], "free_energy": -6.646, "intermolecular_energy": -8.982, "internal_energy": -1.203}

$$$$
N3R_modified_C
     RDKit          3D

 44 46  0  0  0  0  0  0  0  0999 V2000
    7.7250   -0.0790   18.2950 C   0  0  0  0  0  0  0  0  0  0  0  0
    8.1530   -0.1850   19.6500 O   0  0  0  0  0  0  0  0  0  0  0  0
    7.3750    0.2700   20.7180 C   0  0  0  0  0  0  0  0  0  0  0  0
    7.2530    1.6450   20.9830 C   0  0  0  0  0  0  0  0  0  0  0  0
    6.4780    2.0930   22.0450 C   0  0  0  0  0  0  0  0  0  0  0  0
    5.8140    1.1860   22.8580 C   0  0  0  0  0  0  0  0  0  0  0  0
    5.9200   -0.1710   22.6120 C   0  0  0  0  0  0  0  0  0  0  0  0
    6.7020   -0.6490   21.5420 C   0  0  0  0  0  0  0  0  0  0  0  0
    6.8030   -2.0190   21.3010 O   0  0  0  0  0  0  0  0  0  0  0  0
    6.8520   -2.9480   22.3820 C   0  0  0  0  0  0  0  0  0  0  0  0
    8.1730   -3.6590   22.4020 C   0  0  0  0  0  0  0  0  0  0  0  0
    9.2460   -2.7160   22.1360 N   0  0  0  0  0  0  0  0  0  0  0  0
   10.1730   -2.4100   23.1620 C   0  0  0  0  0  0  0  0  0  0  0  0
   10.1110   -3.0080   24.2670 O   0  0  0  0  0  0  0  0  0  0  0  0
   11.2320   -1.4350   22.9190 C   0  0  0  0  0  0  0  0  0  0  0  0
   12.4040   -1.8740   22.4490 C   0  0  0  0  0  0  0  0  0  0  0  0
   13.4970   -0.9460   22.1670 C   0  0  0  0  0  0  0  0  0  0  0  0
   14.5820   -1.3820   21.7150 O   0  0  0  0  0  0  0  0  0  0  0  0
   13.3750    0.5090   22.3920 C   0  0  0  0  0  0  0  0  0  0  0  0
   12.0520    0.9300   22.9280 C   0  0  0  0  0  0  0  0  0  0  0  0
   11.8660    2.2920   23.1690 C   0  0  0  0  0  0  0  0  0  0  0  0
   10.6560    2.7530   23.6700 C   0  0  0  0  0  0  0  0  0  0  0  0
    9.6250    1.8560   23.9400 C   0  0  0  0  0  0  0  0  0  0  0  0
    9.7950    0.4920   23.7060 C   0  0  0  0  0  0  0  0  0  0  0  0
    8.7650   -0.3390   23.9930 F   0  0  0  0  0  0  0  0  0  0  0  0
   11.0140    0.0090   23.1890 C   0  0  0  0  0  0  0  0  0  0  0  0
    6.6576    0.1854   18.2672 H   0  0  0  0  0  0  0  0  0  0  0  0
    8.3094    0.7015   17.7859 H   0  0  0  0  0  0  0  0  0  0  0  0
    7.8776   -1.0421   17.7859 H   0  0  0  0  0  0  0  0  0  0  0  0
    7.7756    2.3722   20.3441 H   0  0  0  0  0  0  0  0  0  0  0  0
    6.3904    3.1716   22.2423 H   0  0  0  0  0  0  0  0  0  0  0  0
    5.2029    1.5462   23.6987 H   0  0  0  0  0  0  0  0  0  0  0  0
    5.3881   -0.8845   23.2586 H   0  0  0  0  0  0  0  0  0  0  0  0
    6.7170   -2.4076   23.3305 H   0  0  0  0  0  0  0  0  0  0  0  0
    6.0500   -3.6895   22.2515 H   0  0  0  0  0  0  0  0  0  0  0  0
    8.3261   -4.1164   23.3906 H   0  0  0  0  0  0  0  0  0  0  0  0
    8.1761   -4.4394   21.6268 H   0  0  0  0  0  0  0  0  0  0  0  0
    9.3390   -2.2430   21.2080 H   0  0  0  0  0  0  0  0  0  0  0  0
   12.5478   -2.9501   22.2719 H   0  0  0  0  0  0  0  0  0  0  0  0
   14.1516    0.8145   23.1087 H   0  0  0  0  0  0  0  0  0  0  0  0
   13.4896    0.9933   21.4110 H   0  0  0  0  0  0  0  0  0  0  0  0
   12.6801    3.0021   22.9615 H   0  0  0  0  0  0  0  0  0  0  0  0
   10.5113    3.8278   23.8539 H   0  0  0  0  0  0  0  0  0  0  0  0
    8.6699    2.2264   24.3407 H   0  0  0  0  0  0  0  0  0  0  0  0
  1  2  1  0
  2  3  1  0
  3  4  2  0
  4  5  1  0
  5  6  2  0
  6  7  1  0
  7  8  2  0
  8  9  1  0
  9 10  1  0
 10 11  1  0
 11 12  1  0
 12 13  1  0
 13 14  2  0
 13 15  1  0
 15 16  2  0
 16 17  1  0
 17 18  2  0
 17 19  1  0
 19 20  1  0
 20 21  2  0
 21 22  1  0
 22 23  2  0
 23 24  1  0
 24 25  1  0
 24 26  2  0
  8  3  1  0
 26 15  1  0
 26 20  1  0
  1 27  1  0
  1 28  1  0
  1 29  1  0
  4 30  1  0
  5 31  1  0
  6 32  1  0
  7 33  1  0
 10 34  1  0
 10 35  1  0
 11 36  1  0
 11 37  1  0
 12 38  1  0
 16 39  1  0
 19 40  1  0
 19 41  1  0
 21 42  1  0
 22 43  1  0
 23 44  1  0
M  END
>  <meeko>  (4) 
{"is_sidechain": [false], "free_energy": -6.614, "intermolecular_energy": -8.507, "internal_energy": -1.635}

$$$$
N3R_modified_C
     RDKit          3D

 44 46  0  0  0  0  0  0  0  0999 V2000
    9.2080   -2.1420   22.8620 C   0  0  0  0  0  0  0  0  0  0  0  0
    9.9280   -1.0250   23.3760 O   0  0  0  0  0  0  0  0  0  0  0  0
   11.2650   -0.7820   23.0540 C   0  0  0  0  0  0  0  0  0  0  0  0
   12.0640   -1.7940   22.4920 C   0  0  0  0  0  0  0  0  0  0  0  0
   13.3920   -1.5490   22.1720 C   0  0  0  0  0  0  0  0  0  0  0  0
   13.9490   -0.2990   22.4030 C   0  0  0  0  0  0  0  0  0  0  0  0
   13.1790    0.7100   22.9530 C   0  0  0  0  0  0  0  0  0  0  0  0
   11.8290    0.4840   23.2880 C   0  0  0  0  0  0  0  0  0  0  0  0
   11.0610    1.5070   23.8420 O   0  0  0  0  0  0  0  0  0  0  0  0
   10.7870    2.6960   23.1020 C   0  0  0  0  0  0  0  0  0  0  0  0
    9.5540    3.3680   23.6300 C   0  0  0  0  0  0  0  0  0  0  0  0
    8.5290    3.4010   22.6020 N   0  0  0  0  0  0  0  0  0  0  0  0
    7.5080    2.4190   22.6070 C   0  0  0  0  0  0  0  0  0  0  0  0
    7.4470    1.5760   23.5390 O   0  0  0  0  0  0  0  0  0  0  0  0
    6.4940    2.4180   21.5560 C   0  0  0  0  0  0  0  0  0  0  0  0
    5.4150    3.1910   21.7120 C   0  0  0  0  0  0  0  0  0  0  0  0
    4.3750    3.2490   20.6880 C   0  0  0  0  0  0  0  0  0  0  0  0
    3.3800    3.9920   20.8530 O   0  0  0  0  0  0  0  0  0  0  0  0
    4.4500    2.4580   19.4430 C   0  0  0  0  0  0  0  0  0  0  0  0
    5.6670    1.6080   19.3370 C   0  0  0  0  0  0  0  0  0  0  0  0
    5.8040    0.8300   18.1860 C   0  0  0  0  0  0  0  0  0  0  0  0
    6.9140    0.0130   18.0240 C   0  0  0  0  0  0  0  0  0  0  0  0
    7.8950   -0.0360   19.0120 C   0  0  0  0  0  0  0  0  0  0  0  0
    7.7740    0.7340   20.1670 C   0  0  0  0  0  0  0  0  0  0  0  0
    8.7510    0.6440   21.1010 F   0  0  0  0  0  0  0  0  0  0  0  0
    6.6560    1.5760   20.3430 C   0  0  0  0  0  0  0  0  0  0  0  0
    8.8200   -2.7439   23.6970 H   0  0  0  0  0  0  0  0  0  0  0  0
    8.3692   -1.7856   22.2461 H   0  0  0  0  0  0  0  0  0  0  0  0
    9.8790   -2.7588   22.2461 H   0  0  0  0  0  0  0  0  0  0  0  0
   11.6325   -2.7883   22.3045 H   0  0  0  0  0  0  0  0  0  0  0  0
   14.0060   -2.3493   21.7332 H   0  0  0  0  0  0  0  0  0  0  0  0
   15.0025   -0.1107   22.1488 H   0  0  0  0  0  0  0  0  0  0  0  0
   13.6253    1.6995   23.1308 H   0  0  0  0  0  0  0  0  0  0  0  0
   11.6410    3.3835   23.1914 H   0  0  0  0  0  0  0  0  0  0  0  0
   10.6246    2.4303   22.0470 H   0  0  0  0  0  0  0  0  0  0  0  0
    9.1792    2.8099   24.5007 H   0  0  0  0  0  0  0  0  0  0  0  0
    9.8022    4.3978   23.9264 H   0  0  0  0  0  0  0  0  0  0  0  0
    8.5390    4.1220   21.8440 H   0  0  0  0  0  0  0  0  0  0  0  0
    5.3084    3.7933   22.6263 H   0  0  0  0  0  0  0  0  0  0  0  0
    3.5666    1.8044   19.3950 H   0  0  0  0  0  0  0  0  0  0  0  0
    4.4913    3.1771   18.6116 H   0  0  0  0  0  0  0  0  0  0  0  0
    5.0299    0.8647   17.4053 H   0  0  0  0  0  0  0  0  0  0  0  0
    7.0194   -0.5966   17.1145 H   0  0  0  0  0  0  0  0  0  0  0  0
    8.7715   -0.6873   18.8793 H   0  0  0  0  0  0  0  0  0  0  0  0
  1  2  1  0
  2  3  1  0
  3  4  2  0
  4  5  1  0
  5  6  2  0
  6  7  1  0
  7  8  2  0
  8  9  1  0
  9 10  1  0
 10 11  1  0
 11 12  1  0
 12 13  1  0
 13 14  2  0
 13 15  1  0
 15 16  2  0
 16 17  1  0
 17 18  2  0
 17 19  1  0
 19 20  1  0
 20 21  2  0
 21 22  1  0
 22 23  2  0
 23 24  1  0
 24 25  1  0
 24 26  2  0
  8  3  1  0
 26 15  1  0
 26 20  1  0
  1 27  1  0
  1 28  1  0
  1 29  1  0
  4 30  1  0
  5 31  1  0
  6 32  1  0
  7 33  1  0
 10 34  1  0
 10 35  1  0
 11 36  1  0
 11 37  1  0
 12 38  1  0
 16 39  1  0
 19 40  1  0
 19 41  1  0
 21 42  1  0
 22 43  1  0
 23 44  1  0
M  END
>  <meeko>  (5) 
{"is_sidechain": [false], "free_energy": -6.55, "intermolecular_energy": -9.046, "internal_energy": -1.009}

$$$$
