N3R
     RDKit          3D

 42 44  0  0  0  0  0  0  0  0999 V2000
    3.2810    1.3864    1.8265 N   0  0  0  0  0  0  0  0  0  0  0  0
   -5.6793   -0.7240    0.1703 C   0  0  0  0  0  0  0  0  0  0  0  0
   -4.7607   -1.0729   -0.8137 C   0  0  0  0  0  0  0  0  0  0  0  0
   -3.4155   -0.7840   -0.6137 C   0  0  0  0  0  0  0  0  0  0  0  0
   -1.9772   -2.4185   -1.3825 C   0  0  0  0  0  0  0  0  0  0  0  0
   -0.4907   -2.3941   -1.7289 C   0  0  0  0  0  0  0  0  0  0  0  0
    2.2035   -0.4606    0.0369 C   0  0  0  0  0  0  0  0  0  0  0  0
    2.5664    1.8781    0.7268 C   0  0  0  0  0  0  0  0  0  0  0  0
    1.7375    3.7712   -0.5238 C   0  0  0  0  0  0  0  0  0  0  0  0
    1.3553    1.5191   -1.3116 C   0  0  0  0  0  0  0  0  0  0  0  0
    0.8399    0.7283   -2.2623 F   0  0  0  0  0  0  0  0  0  0  0  0
    1.2077    2.8978   -1.4712 C   0  0  0  0  0  0  0  0  0  0  0  0
    2.4232    3.2613    0.5777 C   0  0  0  0  0  0  0  0  0  0  0  0
    2.0202    0.9799   -0.2055 C   0  0  0  0  0  0  0  0  0  0  0  0
    3.5066    0.0578    2.0530 C   0  0  0  0  0  0  0  0  0  0  0  0
    4.1498   -0.3369    3.0177 O   0  0  0  0  0  0  0  0  0  0  0  0
    2.9173   -0.8921    1.0892 C   0  0  0  0  0  0  0  0  0  0  0  0
    1.6181   -1.5493   -0.7862 C   0  0  0  0  0  0  0  0  0  0  0  0
    2.3203   -2.3945   -1.3289 O   0  0  0  0  0  0  0  0  0  0  0  0
    0.2475   -1.5413   -0.8169 N   0  0  0  0  0  0  0  0  0  0  0  0
   -2.5134   -1.0988   -1.5903 O   0  0  0  0  0  0  0  0  0  0  0  0
   -3.0376   -0.1204    0.5539 C   0  0  0  0  0  0  0  0  0  0  0  0
   -1.6943    0.1835    0.7106 O   0  0  0  0  0  0  0  0  0  0  0  0
   -1.4297    0.9203    1.9021 C   0  0  0  0  0  0  0  0  0  0  0  0
   -5.2112   -0.0889    1.3123 C   0  0  0  0  0  0  0  0  0  0  0  0
   -3.9130    0.2218    1.5274 N   0  0  0  0  0  0  0  0  0  0  0  0
    3.6920    2.0216    2.4983 H   0  0  0  0  0  0  0  0  0  0  0  0
   -6.7365   -0.9352    0.0488 H   0  0  0  0  0  0  0  0  0  0  0  0
   -5.0903   -1.5542   -1.7286 H   0  0  0  0  0  0  0  0  0  0  0  0
   -2.1116   -2.7697   -0.3500 H   0  0  0  0  0  0  0  0  0  0  0  0
   -2.5036   -3.1055   -2.0558 H   0  0  0  0  0  0  0  0  0  0  0  0
   -0.3350   -1.9914   -2.7351 H   0  0  0  0  0  0  0  0  0  0  0  0
   -0.0705   -3.4036   -1.6900 H   0  0  0  0  0  0  0  0  0  0  0  0
    1.6236    4.8461   -0.6487 H   0  0  0  0  0  0  0  0  0  0  0  0
    0.6796    3.2793   -2.3415 H   0  0  0  0  0  0  0  0  0  0  0  0
    2.8456    3.9486    1.3066 H   0  0  0  0  0  0  0  0  0  0  0  0
    3.0808   -1.9429    1.3005 H   0  0  0  0  0  0  0  0  0  0  0  0
   -0.2442   -0.7237   -0.4657 H   0  0  0  0  0  0  0  0  0  0  0  0
   -1.9684    1.8759    1.9068 H   0  0  0  0  0  0  0  0  0  0  0  0
   -0.3586    1.1461    1.9262 H   0  0  0  0  0  0  0  0  0  0  0  0
   -1.6632    0.3280    2.7933 H   0  0  0  0  0  0  0  0  0  0  0  0
   -5.8931    0.2007    2.1074 H   0  0  0  0  0  0  0  0  0  0  0  0
  1  8  1  0
  2 25  2  0
  3  2  1  0
  3  4  2  0
  4 22  1  0
  6  5  1  0
  7 14  1  0
  7 18  1  0
  8 13  1  0
  8 14  2  0
  9 12  1  0
 10 12  2  0
 10 11  1  0
 13  9  2  0
 14 10  1  0
 15  1  1  0
 15 17  1  0
 16 15  2  0
 17  7  2  0
 18 19  2  0
 18 20  1  0
 20  6  1  0
 21  4  1  0
 21  5  1  0
 22 26  2  0
 22 23  1  0
 23 24  1  0
 25 26  1  0
  1 27  1  0
  2 28  1  0
  3 29  1  0
  5 30  1  0
  5 31  1  0
  6 32  1  0
  6 33  1  0
  9 34  1  0
 12 35  1  0
 13 36  1  0
 17 37  1  0
 20 38  1  0
 24 39  1  0
 24 40  1  0
 24 41  1  0
 25 42  1  0
M  END
