REMARK SMILES COc1ccccc1OCCNC(=O)c1cc(=O)[nH]c2cccc(F)c12
REMARK SMILES IDX 10 1 11 2 12 3 13 4 14 5 15 7 19 8 20 9 17 10 21 11 26 12
REMARK SMILES IDX 16 13 22 14 24 15 23 16 18 18 25 19 9 20 8 21 7 22 3 23 6 24
REMARK SMILES IDX 4 25 5 26 2 27 1 28
REMARK H PARENT 12 6 19 17
ROOT
ATOM      1  C   UNL     1      -2.280  -1.860  -1.009  1.00  0.00     0.251 C 
ENDROOT
BRANCH   1   2
ATOM      2  C   UNL     1      -0.926  -1.824  -1.720  1.00  0.00     0.157 C 
BRANCH   2   3
ATOM      3  N   UNL     1       0.106  -1.375  -0.782  1.00  0.00    -0.349 N 
ATOM      4  C   UNL     1       1.386  -1.266  -1.190  1.00  0.00     0.252 C 
ATOM      5  O   UNL     1       1.669  -1.445  -2.358  1.00  0.00    -0.269 OA
ATOM      6  H   UNL     1      -0.131  -1.156   0.132  1.00  0.00     0.163 HD
BRANCH   4   7
ATOM      7  C   UNL     1       2.450  -0.928  -0.213  1.00  0.00     0.057 A 
ATOM      8  N   UNL     1       4.461  -0.288   1.635  1.00  0.00    -0.322 N 
ATOM      9  C   UNL     1       3.997   0.717   0.812  1.00  0.00     0.052 A 
ATOM     10  C   UNL     1       3.971  -1.537   1.553  1.00  0.00     0.249 A 
ATOM     11  C   UNL     1       4.512   2.005   0.901  1.00  0.00     0.027 A 
ATOM     12  C   UNL     1       2.988   0.438  -0.128  1.00  0.00     0.047 A 
ATOM     13  C   UNL     1       2.960  -1.879   0.623  1.00  0.00     0.086 A 
ATOM     14  C   UNL     1       4.035   2.996   0.070  1.00  0.00     0.005 A 
ATOM     15  C   UNL     1       2.513   1.454  -0.965  1.00  0.00     0.133 A 
ATOM     16  C   UNL     1       3.041   2.724  -0.859  1.00  0.00     0.040 A 
ATOM     17  H   UNL     1       5.156  -0.090   2.282  1.00  0.00     0.170 HD
ATOM     18  O   UNL     1       4.408  -2.396   2.299  1.00  0.00    -0.270 OA
ATOM     19  F   UNL     1       1.545   1.193  -1.870  1.00  0.00    -0.206 F 
ENDBRANCH   4   7
ENDBRANCH   2   3
ENDBRANCH   1   2
BRANCH   1  20
ATOM     20  O   UNL     1      -2.658  -0.533  -0.637  1.00  0.00    -0.488 OA
BRANCH  20  21
ATOM     21  C   UNL     1      -3.846  -0.388   0.009  1.00  0.00     0.161 A 
ATOM     22  C   UNL     1      -4.630  -1.498   0.279  1.00  0.00     0.050 A 
ATOM     23  C   UNL     1      -4.277   0.877   0.399  1.00  0.00     0.160 A 
ATOM     24  C   UNL     1      -5.837  -1.348   0.936  1.00  0.00     0.004 A 
ATOM     25  C   UNL     1      -5.488   1.020   1.057  1.00  0.00     0.050 A 
ATOM     26  C   UNL     1      -6.265  -0.092   1.324  1.00  0.00     0.004 A 
BRANCH  23  27
ATOM     27  O   UNL     1      -3.511   1.969   0.136  1.00  0.00    -0.493 OA
ATOM     28  C   UNL     1      -4.017   3.235   0.566  1.00  0.00     0.278 C 
ENDBRANCH  23  27
ENDBRANCH  20  21
ENDBRANCH   1  20
TORSDOF 6
