REMARK SMILES COc1ccccc1OCCNC(=O)c1cc(=O)[nH]c2cc(O)cc(F)c12
REMARK SMILES IDX 11 1 12 2 13 3 14 4 15 6 19 7 20 8 17 9 21 10 27 11 16 12
REMARK SMILES IDX 22 13 25 14 24 15 18 17 26 18 23 19 10 21 9 22 8 23 7 24
REMARK SMILES IDX 3 25 6 26 4 27 5 28 2 29 1 30
REMARK H PARENT 12 5 19 16 23 20
ROOT
ATOM      1  C   UNL     1      -0.548  -2.224  -1.856  1.00  0.00     0.157 C 
ENDROOT
BRANCH   1   2
ATOM      2  N   UNL     1       0.180  -1.460  -0.861  1.00  0.00    -0.349 N 
ATOM      3  C   UNL     1       1.545  -1.521  -0.764  1.00  0.00     0.252 C 
ATOM      4  O   UNL     1       2.254  -2.348  -1.323  1.00  0.00    -0.269 OA
ATOM      5  H   UNL     1      -0.314  -0.665  -0.456  1.00  0.00     0.163 HD
BRANCH   3   6
ATOM      6  C   UNL     1       2.111  -0.499   0.147  1.00  0.00     0.057 A 
ATOM      7  N   UNL     1       3.110   1.257   2.062  1.00  0.00    -0.322 N 
ATOM      8  C   UNL     1       2.645   1.798   0.856  1.00  0.00     0.056 A 
ATOM      9  C   UNL     1       3.120  -0.081   2.343  1.00  0.00     0.249 A 
ATOM     10  C   UNL     1       2.696   3.180   0.665  1.00  0.00     0.073 A 
ATOM     11  C   UNL     1       2.140   0.944  -0.137  1.00  0.00     0.047 A 
ATOM     12  C   UNL     1       2.583  -0.984   1.306  1.00  0.00     0.086 A 
ATOM     13  C   UNL     1       2.248   3.718  -0.536  1.00  0.00     0.120 A 
ATOM     14  C   UNL     1       1.709   1.519  -1.337  1.00  0.00     0.137 A 
ATOM     15  C   UNL     1       1.756   2.898  -1.543  1.00  0.00     0.086 A 
ATOM     16  H   UNL     1       3.488   1.859   2.782  1.00  0.00     0.170 HD
ATOM     17  O   UNL     1       3.533  -0.518   3.410  1.00  0.00    -0.270 OA
ATOM     18  F   UNL     1       1.239   0.759  -2.335  1.00  0.00    -0.206 F 
BRANCH  13  19
ATOM     19  O   UNL     1       2.316   5.071  -0.688  1.00  0.00    -0.508 OA
ATOM     20  H   UNL     1       2.013   5.309  -1.580  1.00  0.00     0.293 HD
ENDBRANCH  13  19
ENDBRANCH   3   6
ENDBRANCH   1   2
BRANCH   1  21
ATOM     21  C   UNL     1      -2.039  -2.266  -1.530  1.00  0.00     0.251 C 
BRANCH  21  22
ATOM     22  O   UNL     1      -2.550  -0.923  -1.601  1.00  0.00    -0.488 OA
BRANCH  22  23
ATOM     23  C   UNL     1      -3.475  -0.708  -0.611  1.00  0.00     0.161 A 
ATOM     24  C   UNL     1      -4.800  -1.084  -0.844  1.00  0.00     0.050 A 
ATOM     25  C   UNL     1      -3.097  -0.066   0.579  1.00  0.00     0.160 A 
ATOM     26  C   UNL     1      -5.762  -0.857   0.136  1.00  0.00     0.004 A 
ATOM     27  C   UNL     1      -4.073   0.154   1.555  1.00  0.00     0.050 A 
ATOM     28  C   UNL     1      -5.398  -0.243   1.334  1.00  0.00     0.004 A 
BRANCH  25  29
ATOM     29  O   UNL     1      -1.773   0.276   0.696  1.00  0.00    -0.493 OA
ATOM     30  C   UNL     1      -1.430   1.122   1.790  1.00  0.00     0.278 C 
ENDBRANCH  25  29
ENDBRANCH  22  23
ENDBRANCH  21  22
ENDBRANCH   1  21
TORSDOF 7
