REMARK SMILES COc1ccccc1OCCNC(=O)C1=CC(=O)Cc2cccc(F)c21
REMARK SMILES IDX 10 1 11 2 12 3 13 4 14 5 15 7 19 8 20 9 17 10 21 11 26 12
REMARK SMILES IDX 16 13 22 14 24 15 23 16 18 17 25 18 9 19 8 20 7 21 3 22 6 23
REMARK SMILES IDX 4 24 5 25 2 26 1 27
REMARK H PARENT 12 6
ROOT
ATOM      1  C   UNL     1      -2.261  -1.876  -1.080  1.00  0.00     0.251 C 
ENDROOT
BRANCH   1   2
ATOM      2  C   UNL     1      -0.919  -1.797  -1.746  1.00  0.00     0.157 C 
BRANCH   2   3
ATOM      3  N   UNL     1       0.091  -1.403  -0.779  1.00  0.00    -0.349 N 
ATOM      4  C   UNL     1       1.442  -1.295  -1.190  1.00  0.00     0.252 C 
ATOM      5  O   UNL     1       1.750  -1.463  -2.398  1.00  0.00    -0.269 OA
ATOM      6  H   UNL     1      -0.154  -1.216   0.221  1.00  0.00     0.163 HD
BRANCH   4   7
ATOM      7  C   UNL     1       2.472  -0.938  -0.218  1.00  0.00     0.053 C 
ATOM      8  C   UNL     1       4.566  -0.256   1.730  1.00  0.00     0.116 C 
ATOM      9  C   UNL     1       4.003   0.760   0.800  1.00  0.00    -0.029 A 
ATOM     10  C   UNL     1       3.974  -1.601   1.582  1.00  0.00     0.160 C 
ATOM     11  C   UNL     1       4.514   2.056   0.886  1.00  0.00     0.005 A 
ATOM     12  C   UNL     1       2.996   0.449  -0.139  1.00  0.00     0.027 A 
ATOM     13  C   UNL     1       2.930  -1.890   0.601  1.00  0.00     0.062 C 
ATOM     14  C   UNL     1       4.032   3.053   0.049  1.00  0.00     0.003 A 
ATOM     15  C   UNL     1       2.511   1.475  -0.976  1.00  0.00     0.131 A 
ATOM     16  C   UNL     1       3.033   2.764  -0.878  1.00  0.00     0.040 A 
ATOM     17  O   UNL     1       4.395  -2.515   2.329  1.00  0.00    -0.294 OA
ATOM     18  F   UNL     1       1.535   1.248  -1.887  1.00  0.00    -0.206 F 
ENDBRANCH   4   7
ENDBRANCH   2   3
ENDBRANCH   1   2
BRANCH   1  19
ATOM     19  O   UNL     1      -2.674  -0.584  -0.639  1.00  0.00    -0.488 OA
BRANCH  19  20
ATOM     20  C   UNL     1      -3.887  -0.412   0.027  1.00  0.00     0.161 A 
ATOM     21  C   UNL     1      -4.705  -1.523   0.312  1.00  0.00     0.050 A 
ATOM     22  C   UNL     1      -4.309   0.871   0.417  1.00  0.00     0.160 A 
ATOM     23  C   UNL     1      -5.910  -1.362   0.972  1.00  0.00     0.004 A 
ATOM     24  C   UNL     1      -5.538   1.014   1.085  1.00  0.00     0.050 A 
ATOM     25  C   UNL     1      -6.327  -0.096   1.357  1.00  0.00     0.004 A 
BRANCH  22  26
ATOM     26  O   UNL     1      -3.513   1.985   0.140  1.00  0.00    -0.493 OA
ATOM     27  C   UNL     1      -3.894   3.307   0.511  1.00  0.00     0.278 C 
ENDBRANCH  22  26
ENDBRANCH  19  20
ENDBRANCH   1  19
TORSDOF 6
