REMARK SMILES COc1ncccc1OCCNC(=O)c1cc(=O)[nH]c2cccc(F)c12
REMARK SMILES IDX 10 1 11 2 12 3 13 4 14 5 15 7 19 8 20 9 17 10 21 11 26 12
REMARK SMILES IDX 16 13 22 14 24 15 23 16 18 18 25 19 9 20 8 21 7 22 3 23 6 24
REMARK SMILES IDX 4 25 5 26 2 27 1 28
REMARK H PARENT 12 6 19 17
ROOT
ATOM      1  C   UNL     1      -2.001  -2.398  -1.421  1.00  0.00     0.251 C 
ENDROOT
BRANCH   1   2
ATOM      2  C   UNL     1      -0.518  -2.343  -1.781  1.00  0.00     0.157 C 
BRANCH   2   3
ATOM      3  N   UNL     1       0.217  -1.501  -0.856  1.00  0.00    -0.349 N 
ATOM      4  C   UNL     1       1.583  -1.571  -0.760  1.00  0.00     0.252 C 
ATOM      5  O   UNL     1       2.271  -2.446  -1.273  1.00  0.00    -0.269 OA
ATOM      6  H   UNL     1      -0.257  -0.664  -0.528  1.00  0.00     0.163 HD
BRANCH   4   7
ATOM      7  C   UNL     1       2.180  -0.519   0.102  1.00  0.00     0.057 A 
ATOM      8  N   UNL     1       3.269   1.248   1.963  1.00  0.00    -0.322 N 
ATOM      9  C   UNL     1       2.628   1.789   0.841  1.00  0.00     0.052 A 
ATOM     10  C   UNL     1       3.416  -0.093   2.181  1.00  0.00     0.249 A 
ATOM     11  C   UNL     1       2.558   3.179   0.705  1.00  0.00     0.027 A 
ATOM     12  C   UNL     1       2.079   0.931  -0.127  1.00  0.00     0.047 A 
ATOM     13  C   UNL     1       2.823  -1.000   1.179  1.00  0.00     0.086 A 
ATOM     14  C   UNL     1       1.945   3.735  -0.416  1.00  0.00     0.005 A 
ATOM     15  C   UNL     1       1.491   1.515  -1.253  1.00  0.00     0.133 A 
ATOM     16  C   UNL     1       1.416   2.901  -1.398  1.00  0.00     0.040 A 
ATOM     17  H   UNL     1       3.684   1.851   2.661  1.00  0.00     0.170 HD
ATOM     18  O   UNL     1       3.996  -0.534   3.167  1.00  0.00    -0.270 OA
ATOM     19  F   UNL     1       0.983   0.760  -2.236  1.00  0.00    -0.206 F 
ENDBRANCH   4   7
ENDBRANCH   2   3
ENDBRANCH   1   2
BRANCH   1  20
ATOM     20  O   UNL     1      -2.577  -1.102  -1.658  1.00  0.00    -0.486 OA
BRANCH  20  21
ATOM     21  C   UNL     1      -3.467  -0.784  -0.672  1.00  0.00     0.181 A 
ATOM     22  C   UNL     1      -4.797  -1.167  -0.806  1.00  0.00     0.054 A 
ATOM     23  C   UNL     1      -3.094  -0.035   0.444  1.00  0.00     0.256 A 
ATOM     24  C   UNL     1      -5.702  -0.823   0.192  1.00  0.00     0.024 A 
ATOM     25  N   UNL     1      -3.956   0.304   1.430  1.00  0.00    -0.219 NA
ATOM     26  C   UNL     1      -5.237  -0.100   1.281  1.00  0.00     0.115 A 
BRANCH  23  27
ATOM     27  O   UNL     1      -1.767   0.358   0.537  1.00  0.00    -0.478 OA
ATOM     28  C   UNL     1      -1.523   1.204   1.657  1.00  0.00     0.280 C 
ENDBRANCH  23  27
ENDBRANCH  20  21
ENDBRANCH   1  20
TORSDOF 6
